    9
 0000.xyz Energy -0.151125
   H     -0.095690     -0.678368     -0.761069
   N      0.000001      0.000004      0.000004
   H     -0.908719      0.433119      0.187416
   H      0.330935     -0.477503      0.843223
   H      0.673466      0.722700     -0.269628
   O      0.683293      0.354607      3.132372
   O     -0.916031     -0.377791      4.602980
   C      0.227736      0.022683      4.258969
   H      0.980658      0.097704      5.114998
