    9
 0002.xyz Energy -0.130543
   H     -0.732895     -0.636478      0.326075
   N      0.000004      0.000003     -0.000002
   H      0.488685     -0.421019     -0.795246
   H     -0.422127      0.886895     -0.289443
   H      0.666281      0.170554      0.758639
   O      0.023529      0.459421      5.744797
   O     -0.046363     -0.118174      3.527043
   C      0.022343     -0.333920      4.766260
   H      0.096209     -1.437766      5.051523
