    9
 0004.xyz Energy -0.126818
   H     -0.948997     -0.284403     -0.259005
   N      0.000005      0.000002      0.000001
   H     -0.042375      0.653096      0.787500
   H      0.542009     -0.825716      0.270134
   H      0.449292      0.457000     -0.798648
   O      0.625741     -0.584085      3.617244
   O     -0.378982      0.452534      5.398504
   C     -0.241463      0.128729      4.188890
   H     -1.039644      0.554232      3.490921
