    9
 0006.xyz Energy -0.12135
   H     -0.794236      0.640019      0.090164
   N      0.000004     -0.000003     -0.000000
   H     -0.300950     -0.951711      0.228391
   H      0.351357      0.025400     -0.961486
   H      0.743769      0.286340      0.642938
   O     -0.913539      0.714355      4.156403
   O      0.743029     -0.835706      4.488102
   C      0.166854      0.118741      3.901606
   H      0.718359      0.511347      2.981275
