    9
 0007.xyz Energy -0.132997
   H     -0.453020      0.022668      0.918054
   N      0.000002     -0.000000     -0.000005
   H      0.983920      0.265957      0.098264
   H     -0.060845     -0.945940     -0.387359
   H     -0.470089      0.657317     -0.628889
   O      0.715107     -0.542243      3.465148
   O     -0.876453      0.228226      4.924684
   C      0.157877      0.307276      4.209954
   H      0.679859      1.323033      4.242792
