    9
 0008.xyz Energy -0.121068
   H     -0.552267     -0.849612     -0.147394
   N      0.000003      0.000005      0.000001
   H      0.996469     -0.235624     -0.004295
   H     -0.195835      0.668813     -0.750260
   H     -0.248409      0.416358      0.901937
   O      0.264450      0.380311      5.943411
   O      0.078181     -0.465927      3.820649
   C     -0.335274      0.083774      4.876021
   H     -1.443614      0.360755      4.862965
