    9
 0009.xyz Energy -0.116544
   H      0.347471      0.963012      0.020863
   N     -0.000002     -0.000005     -0.000000
   H      0.397821     -0.523466      0.784989
   H     -1.021235      0.003937      0.074932
   H      0.275969     -0.443411     -0.880784
   O      0.540048     -0.354215      4.056520
   O     -0.817025      0.351921      5.764342
   C      0.271025      0.002247      5.234437
   H      1.167044      0.009641      5.943241
