    9
 0011.xyz Energy -0.140493
   H      0.849350      0.568328      0.064602
   N     -0.000005     -0.000003     -0.000000
   H      0.256135     -0.986117     -0.102253
   H     -0.557440      0.121467      0.850329
   H     -0.547980      0.296365     -0.812673
   O     -0.070995     -1.146457      3.761272
   O     -0.274913      1.122955      3.506097
   C      0.338479      0.023004      3.534077
   H      1.457430      0.098943      3.316161
