    9
 0013.xyz Energy -0.132724
   H      0.475318      0.854498      0.304091
   N     -0.000003     -0.000005     -0.000002
   H      0.237038     -0.767041      0.635570
   H     -1.012769      0.150845      0.009849
   H      0.300449     -0.238238     -0.949487
   O     -0.780621      0.160656      3.377246
   O      0.495412     -0.286199      5.229000
   C      0.279088      0.122847      4.057330
   H      1.201635      0.528973      3.519488
