    9
 0015.xyz Energy -0.125142
   H     -0.992033      0.198112     -0.158700
   N      0.000005     -0.000001      0.000001
   H      0.142610     -1.012919      0.046312
   H      0.552873      0.387695     -0.769790
   H      0.296476      0.427126      0.882166
   O      0.435965     -1.022468      4.411523
   O     -0.321248      1.114502      4.069589
   C     -0.112255     -0.090052      3.765783
   H     -0.483313     -0.387844      2.727061
