    9
 0017.xyz Energy -0.138927
   H     -0.001527      1.021631     -0.069515
   N      0.000000     -0.000006      0.000000
   H     -0.838542     -0.374180     -0.453125
   H      0.833564     -0.372402     -0.463723
   H      0.006505     -0.274971      0.986357
   O     -0.252240     -1.118149      3.722431
   O     -0.059253      1.158299      3.916005
   C      0.304805     -0.039281      4.058095
   H      1.312417     -0.169242      4.580716
