    9
 0018.xyz Energy -0.129272
   H      0.524589      0.198344     -0.856756
   N     -0.000003     -0.000001      0.000005
   H      0.419069      0.510232      0.782644
   H     -0.972825      0.296631     -0.119057
   H      0.029207     -1.005191      0.193104
   O     -0.026759     -1.130750      4.197103
   O      0.358037      1.094342      3.799826
   C     -0.324163      0.035632      3.825581
   H     -1.395796      0.153321      3.447352
