    9
 0019.xyz Energy -0.123757
   H      0.879961     -0.518917      0.070412
   N     -0.000005      0.000003     -0.000000
   H      0.085927      0.721295     -0.721690
   H     -0.756696     -0.643442     -0.248891
   H     -0.209126      0.441024      0.900175
   O      0.324889     -1.110993      4.374539
   O     -0.621105      0.960220      4.106017
   C      0.289852      0.147541      4.416878
   H      1.248088      0.635182      4.803267
