    9
 0020.xyz Energy -0.153972
   H      0.955819     -0.242688     -0.275822
   N     -0.000005      0.000001      0.000002
   H     -0.523222      0.313960     -0.822286
   H     -0.458285     -0.822444      0.402633
   H      0.025761      0.751153      0.695455
   O     -0.142555      0.097263      5.047010
   O      0.304348     -0.394956      2.852715
   C     -0.158318      0.291298      3.802410
   H     -0.681706      1.254294      3.479902
