    9
 0021.xyz Energy -0.135215
   H      0.121225     -0.135583      1.007713
   N     -0.000001      0.000001     -0.000005
   H     -0.161314     -0.905869     -0.449295
   H     -0.803541      0.612143     -0.167795
   H      0.843639      0.429299     -0.390547
   O     -0.226706     -0.939060      3.517984
   O     -0.124627      0.970124      4.783499
   C      0.343789     -0.030392      4.178123
   H      1.480280     -0.130950      4.237975
