    9
 0023.xyz Energy -0.141373
   H      0.770866     -0.268163      0.618400
   N     -0.000004      0.000001     -0.000003
   H     -0.466569     -0.842129     -0.348740
   H     -0.671670      0.571793      0.520062
   H      0.367431      0.538479     -0.789675
   O     -0.710923     -0.582049      3.372031
   O      0.905914      0.594603      4.493752
   C     -0.190799     -0.012280      4.367902
   H     -0.821619     -0.052931      5.319596
