    9
 0024.xyz Energy -0.118063
   H     -0.930553     -0.392497      0.169063
   N      0.000005      0.000002     -0.000001
   H      0.696686     -0.749947      0.026361
   H      0.018415      0.450842     -0.919214
   H      0.215381      0.691572      0.723803
   O     -0.473540      0.174788      6.084329
   O      0.145702     -0.092779      3.893010
   C      0.320800     -0.080248      5.140451
   H      1.381271     -0.345520      5.472623
