    9
 0026.xyz Energy -0.136124
   H      0.551231     -0.862488     -0.028694
   N     -0.000003      0.000005      0.000000
   H      0.628927      0.807816     -0.019262
   H     -0.623714      0.033586     -0.811422
   H     -0.556402      0.021020      0.859376
   O      0.971554     -0.073098      4.689407
   O     -0.905132      0.418048      3.467213
   C     -0.065001     -0.337540      4.024163
   H     -0.279794     -1.453403      3.905750
