    9
 0027.xyz Energy -0.112893
   H      1.007114      0.069688      0.171553
   N     -0.000005     -0.000000     -0.000001
   H     -0.245538     -0.973701     -0.200262
   H     -0.510225      0.317054      0.829276
   H     -0.251274      0.586964     -0.800554
   O      1.105058      0.330420      4.457187
   O     -0.972193     -0.477341      4.995224
   C     -0.130018      0.143764      4.293870
   H     -0.559734      0.619055      3.347959
