    9
 0028.xyz Energy -0.143728
   H      0.515890     -0.858921      0.211367
   N     -0.000003      0.000005     -0.000001
   H      0.644627      0.795555      0.005995
   H     -0.433664     -0.080972     -0.924084
   H     -0.726814      0.144274      0.706738
   O     -0.706517      0.888771      3.657347
   O      0.455837     -1.064824      3.358460
   C      0.245300      0.172266      3.247968
   H      1.056158      0.741835      2.679278
