    9
 0029.xyz Energy -0.116991
   H      0.977839     -0.302625      0.028512
   N     -0.000005      0.000002     -0.000000
   H     -0.610085     -0.797521      0.200609
   H     -0.151726      0.730683      0.701166
   H     -0.215954      0.369440     -0.930285
   O     -0.180306     -0.141297      6.197074
   O     -0.169035      0.089766      3.915975
   C      0.341839      0.050425      5.066795
   H      1.471889      0.217111      5.089364
