    9
 0030.xyz Energy -0.155366
   H     -0.481581      0.800575     -0.419195
   N      0.000003     -0.000004      0.000002
   H     -0.686794     -0.620056      0.438557
   H      0.507057     -0.512355     -0.727281
   H      0.661281      0.331897      0.707887
   O     -0.737802      0.012185      2.805062
   O      0.595660      0.306957      4.646779
   C      0.139093     -0.312287      3.649277
   H      0.598844     -1.344658      3.481512
