    9
 0032.xyz Energy -0.148758
   H     -0.032325     -1.001140     -0.212693
   N      0.000000      0.000005      0.000001
   H      0.407264      0.138536      0.929210
   H      0.574404      0.479122     -0.699324
   H     -0.949345      0.383406     -0.017209
   O     -0.917651     -0.678978      3.574282
   O      0.807331      0.827394      3.684811
   C      0.107956     -0.145225      4.074446
   H      0.464757     -0.625378      5.047817
