    9
 0033.xyz Energy -0.122685
   H     -0.716685      0.712211      0.166380
   N      0.000004     -0.000004     -0.000001
   H      0.878578      0.454995     -0.263758
   H      0.141932     -0.547332      0.853718
   H     -0.303879     -0.619820     -0.756328
   O      0.758957     -0.079575      5.513537
   O     -0.728303     -0.272052      3.779195
   C     -0.029999      0.344075      4.627537
   H     -0.129101      1.481526      4.586418
