    9
 0035.xyz Energy -0.171273
   H     -0.878097      0.188454      0.491931
   N      0.000005     -0.000001     -0.000003
   H      0.303239     -0.957823      0.197758
   H     -0.142637      0.111657     -1.007839
   H      0.717429      0.657726      0.318188
   O      0.866278     -0.771247      2.887583
   O     -0.605998      0.984462      2.805008
   C     -0.254694     -0.208632      3.005103
   H     -1.096593     -0.898407      3.352554
