    9
 0036.xyz Energy -0.143589
   H      0.762093     -0.054027     -0.681807
   N     -0.000004      0.000000      0.000004
   H      0.265504      0.633788      0.759149
   H     -0.844557      0.352536     -0.459342
   H     -0.182983     -0.932301      0.381948
   O      0.248018      0.461803      5.174717
   O     -0.530373     -0.252454      3.139802
   C      0.276289     -0.204856      4.106216
   H      1.189682     -0.882033      3.994630
