    9
 0038.xyz Energy -0.120026
   H      0.276107     -0.600147      0.782402
   N     -0.000002      0.000003     -0.000004
   H     -0.483989     -0.561353     -0.706487
   H     -0.626120      0.736017      0.338828
   H      0.834022      0.425438     -0.414684
   O     -0.035196      0.035594      6.098839
   O      0.206066     -0.337067      3.849428
   C     -0.167200      0.294998      4.873192
   H     -0.719939      1.270219      4.652444
