    9
 0040.xyz Energy -0.225627
   H     -0.523000      0.610000      0.777000
   N      0.177000      0.180000      0.120000
   H      0.530000     -0.574000      0.763000
   H     -0.299000     -0.234000     -0.671000
   H      0.921000      0.843000     -0.061000
   O      0.380880     -1.136800      2.240060
   O     -1.090120      0.518200      2.259060
   C     -0.492120     -0.437800      2.836060
   H     -0.740120     -0.670800      3.903060
