   22
 0001.xyz Energy 0.083063
   N      0.405301     -0.122949     -1.172836
   C     -0.492156      0.284402     -0.035017
   H      0.011579      0.185861     -2.077628
   H      0.514795     -1.150495     -1.202491
   H      1.343134      0.299248     -1.068156
   H     -1.470152     -0.168057     -0.225739
   H     -0.588637      1.373401     -0.083321
   C      0.004034     -0.128484      1.362369
   H      0.098451     -1.214738      1.434748
   H     -0.701723      0.204601      2.127368
   H      0.976856      0.320791      1.576562
   N      0.096281      1.160040      5.192821
   C     -0.174906      0.055644      6.179111
   H     -0.078415      2.084404      5.621845
   H     -0.514702      1.068378      4.363956
   H      1.079433      1.132768      4.874380
   H     -1.216626      0.163544      6.496518
   H      0.478886      0.232441      7.038680
   C      0.055540     -1.367292      5.639191
   H     -0.595479     -1.567703      4.784726
   H     -0.162388     -2.105466      6.414992
   H      1.093712     -1.499008      5.324608
