   22
 0002.xyz Energy 0.0996294
   N     -0.562324      0.384159      1.044579
   C     -0.013743      0.444355     -0.355933
   H     -0.991953      1.286947      1.308057
   H      0.188961      0.174185      1.722960
   H     -1.284055     -0.351800      1.123368
   H      0.715584      1.259999     -0.375354
   H     -0.851141      0.700390     -1.012264
   C      0.650359     -0.853870     -0.848830
   H      1.496258     -1.122634     -0.211396
   H      1.019232     -0.725423     -1.869465
   H     -0.064592     -1.680275     -0.845698
   N     -1.065904     -0.007979      5.947083
   C      0.002525      0.490939      5.011380
   H     -1.840131      0.673941      6.014799
   H     -0.681827     -0.155294      6.895504
   H     -1.454866     -0.905572      5.612758
   H      0.344461      1.452842      5.405579
   H     -0.478078      0.654503      4.041933
   C      1.205828     -0.453248      4.838353
   H      1.706245     -0.622545      5.794921
   H      1.930830     -0.018062      4.146077
   H      0.886735     -1.418060      4.436571
