   22
 0003.xyz Energy 0.0761486
   N     -0.279514      0.316889     -1.173194
   C     -0.456072      0.139600      0.311190
   H     -1.122358      0.743764     -1.593219
   H     -0.115787     -0.594196     -1.633451
   H      0.527581      0.930640     -1.374803
   H     -1.340508     -0.489343      0.451809
   H     -0.656012      1.132280      0.726123
   C      0.746288     -0.490680      1.036755
   H      0.957196     -1.487976      0.643029
   H      0.536632     -0.582787      2.105316
   H      1.639264      0.127501      0.916111
   N      0.681646      0.572322      6.353349
   C      0.372657     -0.271050      5.145355
   H      1.701081      0.610255      6.521695
   H      0.229579      0.182101      7.197198
   H      0.340231      1.539160      6.221447
   H      0.787630     -1.265008      5.338786
   H      0.905250      0.178658      4.301752
   C     -1.123564     -0.393505      4.805218
   H     -1.672952     -0.849576      5.632425
   H     -1.259491     -1.018679      3.919248
   H     -1.555870      0.588788      4.599489
