   22
 0005.xyz Energy 0.0998913
   N     -0.188275      0.472678      1.138446
   C     -0.457945     -0.319098     -0.113100
   H     -0.967166      0.370441      1.810685
   H     -0.080704      1.477300      0.919625
   H      0.678918      0.147100      1.597481
   H     -1.400175      0.053573     -0.526487
   H     -0.592009     -1.360582      0.194955
   C      0.644631     -0.235259     -1.183925
   H      0.788080      0.797020     -1.512439
   H      0.371484     -0.835940     -2.055036
   H      1.593359     -0.611648     -0.793596
   N      0.847013      0.536884      6.061118
   C      0.273607     -0.123911      4.836146
   H      1.848311      0.755106      5.923969
   H      0.761575     -0.082268      6.884568
   H      0.349746      1.419481      6.267241
   H      0.863767     -1.028256      4.658830
   H      0.425899      0.569139      4.003050
   C     -1.217722     -0.491898      4.935601
   H     -1.390254     -1.191642      5.756996
   H     -1.552793     -0.964085      4.008763
   H     -1.826517      0.399812      5.103923
