   22
 0006.xyz Energy 0.121133
   N      1.210252     -0.058393      0.294639
   C     -0.156553     -0.534436     -0.119157
   H      1.873992     -0.849707      0.342592
   H      1.175084      0.390086      1.225417
   H      1.578103      0.630668     -0.382575
   H     -0.468881     -1.279803      0.618711
   H     -0.039653     -1.023500     -1.091119
   C     -1.224392      0.569451     -0.221729
   H     -1.363336      1.064970      0.742250
   H     -2.182382      0.140995     -0.526591
   H     -0.935586      1.320505     -0.961066
   N     -0.143060     -0.623021      3.729341
   C     -0.168697     -0.356657      5.210689
   H     -0.483869     -1.577227      3.523503
   H      0.818181     -0.536804      3.358800
   H     -0.745107      0.050133      3.226209
   H      0.459009     -1.120136      5.680429
   H     -1.203412     -0.495881      5.538626
   C      0.321048      1.042032      5.626843
   H      1.357082      1.198100      5.316398
   H      0.269730      1.152468      6.712860
   H     -0.299015      1.820094      5.174900
