   22
 0007.xyz Energy 0.089629
   N      0.023705      0.615449      1.084247
   C     -0.104576      0.392705     -0.398968
   H     -0.105598      1.614650      1.316424
   H      0.957880      0.324854      1.418299
   H     -0.687823      0.069936      1.598913
   H      0.651802      1.020560     -0.879864
   H     -1.098254      0.749362     -0.686994
   C      0.071641     -1.067402     -0.853284
   H      1.062559     -1.440425     -0.583033
   H     -0.036668     -1.140998     -1.938233
   H     -0.680857     -1.710707     -0.390664
   N     -0.066433      0.513606      6.854340
   C      0.340300     -0.453353      5.774730
   H      0.361918      0.253276      7.758648
   H     -1.093352      0.518308      6.973226
   H      0.236142      1.473587      6.618495
   H      0.019747     -1.446976      6.102646
   H      1.433297     -0.430455      5.725810
   C     -0.245181     -0.155271      4.382708
   H     -1.337304     -0.182503      4.407715
   H      0.098485     -0.900460      3.661009
   H      0.070781      0.830392      4.032356
