   22
 0008.xyz Energy 0.0702226
   N      0.216625      0.789773     -0.940353
   C      0.291988      0.204098      0.444315
   H      0.783820      1.651900     -1.004027
   H     -0.759506      1.026993     -1.184514
   H      0.571121      0.117839     -1.641478
   H     -0.065537      0.974973      1.133879
   H      1.349375      0.008251      0.647136
   C     -0.520529     -1.087376      0.647485
   H     -1.582275     -0.910971      0.458605
   H     -0.411202     -1.444693      1.674439
   H     -0.172795     -1.874071     -0.026535
   N      0.180099      0.269871      7.304020
   C      0.488942     -0.227799      5.917319
   H      0.996525      0.147729      7.926563
   H     -0.615984     -0.249707      7.710232
   H     -0.064611      1.274130      7.286142
   H      0.769299     -1.281162      6.014256
   H      1.355308      0.339707      5.563897
   C     -0.664579     -0.091413      4.907293
   H     -1.537875     -0.659285      5.237407
   H     -0.358239     -0.473461      3.930330
   H     -0.954249      0.955576      4.788899
