   22
 0009.xyz Energy 0.117822
   N      0.181735      0.904312      0.839121
   C     -0.462147     -0.283173      0.174820
   H     -0.333060      1.167357      1.696339
   H      0.188430      1.719772      0.203749
   H      1.158581      0.691231      1.102000
   H     -1.496158     -0.000501     -0.045381
   H     -0.463946     -1.093708      0.910067
   C      0.229182     -0.758348     -1.115777
   H      0.233405      0.034604     -1.867647
   H     -0.298571     -1.620253     -1.531536
   H      1.261912     -1.054311     -0.915811
   N     -0.382881     -0.286061      4.428261
   C     -0.411383     -0.181197      5.929657
   H     -1.238619     -0.748546      4.077761
   H      0.433354     -0.838078      4.115600
   H     -0.323307      0.651683      3.997187
   H     -0.507252     -1.200445      6.316326
   H     -1.311730      0.383918      6.189621
   C      0.821399      0.494847      6.556219
   H      1.731637     -0.059984      6.315948
   H      0.720484      0.530739      7.643780
   H      0.930323      1.518454      6.189509
