   22
 0010.xyz Energy 0.0888674
   N     -0.070965     -1.208944     -0.297237
   C      0.555853      0.122050      0.021435
   H      0.655985     -1.920067     -0.483989
   H     -0.675143     -1.137950     -1.133089
   H     -0.649870     -1.539184      0.493047
   H      1.175758      0.393909     -0.838438
   H      1.202113     -0.033390      0.890772
   C     -0.443000      1.255400      0.316696
   H     -1.092794      1.433173     -0.543690
   H      0.092072      2.182280      0.537725
   H     -1.066754      1.007357      1.178971
   N      1.062405     -0.107073      5.444020
   C     -0.415352     -0.148421      5.160254
   H      1.255690     -0.393220      6.418592
   H      1.434313      0.847913      5.308356
   H      1.574098     -0.746036      4.812645
   H     -0.894825      0.521289      5.880784
   H     -0.745370     -1.173743      5.353550
   C     -0.813097      0.261164      3.730776
   H     -0.500348      1.286841      3.520362
   H     -1.897597      0.203184      3.609280
   H     -0.351226     -0.401749      2.995024
