   22
 0011.xyz Energy 0.0828978
   N     -0.845084     -0.850515     -0.342620
   C     -0.231804      0.281449      0.437472
   H     -1.786473     -1.076719      0.020214
   H     -0.260393     -1.700377     -0.274866
   H     -0.936000     -0.599391     -1.341323
   H     -0.195778     -0.038083      1.483499
   H     -0.914403      1.132190      0.348825
   C      1.176192      0.698991     -0.023583
   H      1.876484     -0.135086      0.065897
   H      1.546164      1.522920      0.591660
   H      1.160599      1.030609     -1.064687
   N      0.871938     -0.709593      5.879567
   C     -0.496373     -0.259897      5.441962
   H      0.812746     -1.591492      6.416018
   H      1.316773      0.004359      6.480495
   H      1.483234     -0.870023      5.061449
   H     -1.095888     -0.141318      6.349757
   H     -0.918067     -1.071255      4.840770
   C     -0.520910      1.049074      4.632420
   H     -0.111887      1.875273      5.219101
   H     -1.547164      1.302447      4.355173
   H      0.065511      0.948892      3.715803
