   22
 0012.xyz Energy 0.0850953
   N      0.381961     -0.502474     -1.075433
   C      0.077644     -0.402431      0.395410
   H      0.769341     -1.432918     -1.306169
   H      1.073310      0.213325     -1.355409
   H     -0.474746     -0.361476     -1.636602
   H      1.015471     -0.592764      0.926283
   H     -0.630758     -1.203895      0.626457
   C     -0.506033      0.948522      0.846646
   H      0.190982      1.762549      0.633032
   H     -0.697714      0.936647      1.922461
   H     -1.449042      1.153841      0.334113
   N      0.466547      1.115904      5.263355
   C      0.442806     -0.358121      4.958912
   H      1.427323      1.428411      5.483076
   H     -0.136402      1.331511      6.074948
   H      0.126792      1.662053      4.454018
   H      0.842711     -0.869689      5.839789
   H      1.122407     -0.517397      4.116099
   C     -0.945813     -0.927634      4.617209
   H     -1.638232     -0.786840      5.450775
   H     -0.874315     -1.998220      4.409856
   H     -1.359727     -0.435665      3.733607
