   22
 0013.xyz Energy 0.0774494
   N      0.156443      0.423124     -1.162507
   C     -0.534196     -0.196035      0.023098
   H     -0.477828      0.457299     -1.978326
   H      0.992219     -0.125130     -1.426352
   H      0.457638      1.388384     -0.947350
   H     -0.852731     -1.197107     -0.283432
   H     -1.420706      0.412817      0.225483
   C      0.325728     -0.295034      1.295928
   H      1.212865     -0.907629      1.117564
   H     -0.248550     -0.753224      2.104958
   H      0.647246      0.696327      1.624470
   N      0.104441      1.241960      5.840522
   C     -0.281954     -0.147005      5.407538
   H     -0.214445      1.942198      5.149864
   H      1.130820      1.324043      5.932863
   H     -0.321792      1.472235      6.753778
   H      0.173592     -0.310770      4.426096
   H     -1.370927     -0.152539      5.299520
   C      0.147159     -1.269319      6.369640
   H      1.233729     -1.287050      6.484314
   H     -0.171227     -2.240551      5.982860
   H     -0.304851     -1.129275      7.354620
