   22
 0014.xyz Energy 0.107478
   N     -0.182504      1.187886     -0.332492
   C     -0.498324     -0.181188      0.207780
   H     -1.013772      1.800800     -0.283910
   H      0.119098      1.130903     -1.319663
   H      0.576614      1.629992      0.212504
   H     -1.325926     -0.574376     -0.390592
   H     -0.839003     -0.042968      1.238505
   C      0.676121     -1.175843      0.181181
   H      1.025840     -1.335250     -0.841748
   H      0.363574     -2.140205      0.589326
   H      1.511103     -0.805697      0.781104
   N      0.460154     -0.267970      3.852445
   C      0.431885     -0.070414      5.344481
   H      1.400927     -0.562229      3.540375
   H      0.217544      0.609504      3.362651
   H     -0.216662     -0.995389      3.566928
   H      1.189551      0.683814      5.578260
   H      0.727588     -1.022990      5.794723
   C     -0.928269      0.370081      5.914842
   H     -1.237931      1.325512      5.484306
   H     -0.862264      0.489579      6.999104
   H     -1.698285     -0.374847      5.699737
