   22
 0017.xyz Energy 0.0802341
   N      0.052813      1.158438     -0.458436
   C     -0.408021     -0.265342     -0.295704
   H     -0.480339      1.631969     -1.207133
   H      1.055979      1.192162     -0.705899
   H     -0.081871      1.688968      0.418568
   H     -0.268006     -0.755912     -1.263850
   H     -1.477694     -0.226870     -0.067935
   C      0.324387     -1.063218      0.798069
   H      1.394445     -1.121534      0.584352
   H     -0.069290     -2.081322      0.850451
   H      0.189477     -0.594307      1.775838
   N     -0.738005     -0.928590      5.924710
   C      0.433279     -0.249193      5.267052
   H     -0.669423     -1.955235      5.823100
   H     -1.627120     -0.620664      5.496488
   H     -0.770829     -0.705718      6.933664
   H      0.425715     -0.552693      4.215672
   H      1.335674     -0.643300      5.744466
   C      0.428491      1.287208      5.360937
   H     -0.461341      1.701995      4.881093
   H      1.309005      1.698818      4.861403
   H      0.444971      1.611761      6.404251
