   22
 0022.xyz Energy 0.0870209
   N     -0.383333      0.362442     -1.129877
   C     -0.221328      0.375383      0.366647
   H     -0.973020      1.152843     -1.440626
   H     -0.830534     -0.515879     -1.441776
   H      0.535059      0.441581     -1.597884
   H     -1.227203      0.321803      0.794333
   H      0.225109      1.339848      0.627535
   C      0.642897     -0.764335      0.935441
   H      0.208811     -1.737563      0.693580
   H      0.709575     -0.681015      2.023040
   H      1.655703     -0.723475      0.527195
   N      0.291923      1.180674      5.004825
   C     -0.454284      0.028316      5.622276
   H     -0.131456      2.081808      5.283638
   H      0.270375      1.119582      3.973068
   H      1.280229      1.180990      5.308121
   H     -1.492942      0.107821      5.286955
   H     -0.418469      0.173579      6.706331
   C      0.096880     -1.364946      5.269566
   H      0.061287     -1.533996      4.190559
   H     -0.498720     -2.141058      5.756570
   H      1.131900     -1.468416      5.604434
