   22
 0023.xyz Energy 0.100338
   N      0.963865      0.502157      0.611337
   C     -0.021317      0.267418     -0.502356
   H      1.637213      1.243256      0.353647
   H      1.495986     -0.360040      0.816721
   H      0.476749      0.794901      1.474909
   H      0.561040     -0.005661     -1.387714
   H     -0.522481      1.222552     -0.687057
   C     -1.072436     -0.821036     -0.219897
   H     -0.592388     -1.786372     -0.041629
   H     -1.745355     -0.926996     -1.074423
   H     -1.671749     -0.562858      0.656618
   N     -0.419387     -1.165823      4.978926
   C     -0.384996      0.264984      5.445408
   H     -1.264797     -1.645189      5.331798
   H      0.409558     -1.681449      5.319073
   H     -0.428669     -1.213729      3.946280
   H     -0.409674      0.241917      6.539222
   H     -1.300933      0.738617      5.078951
   C      0.837931      1.071907      4.973503
   H      1.764093      0.620160      5.337164
   H      0.784865      2.095071      5.353740
   H      0.876312      1.114807      3.882266
