   22
 0025.xyz Energy 0.112741
   N      0.354042      0.885064      0.803895
   C     -0.308805     -0.370262      0.303107
   H      0.179819      1.012066      1.815105
   H     -0.011107      1.714741      0.306882
   H      1.376260      0.843136      0.655398
   H     -1.376941     -0.272293      0.520037
   H      0.098901     -1.198534      0.890730
   C     -0.110534     -0.654523     -1.196643
   H     -0.519832      0.157643     -1.802417
   H     -0.620694     -1.579602     -1.476335
   H      0.950586     -0.764904     -1.433182
   N     -0.557216      0.752547      4.836523
   C     -0.310726     -0.477176      5.669003
   H     -1.399149      0.633164      4.248369
   H      0.246880      0.940387      4.214538
   H     -0.699664      1.580009      5.439643
   H     -0.201860     -1.314231      4.972543
   H     -1.208433     -0.633284      6.275067
   C      0.924223     -0.403669      6.584899
   H      1.834034     -0.257085      5.997653
   H      1.029674     -1.331937      7.151873
   H      0.831337      0.421527      7.295205
