   22
 0027.xyz Energy 0.100215
   N     -0.535831      0.464534      1.025682
   C      0.550698      0.140729      0.035428
   H     -0.155303      1.000712      1.823643
   H     -0.964980     -0.400932      1.393809
   H     -1.278579      1.030204      0.581746
   H      1.313469     -0.427150      0.576968
   H      0.979259      1.094886     -0.286255
   C      0.088781     -0.659096     -1.195945
   H     -0.334618     -1.621020     -0.896721
   H      0.934562     -0.850407     -1.861013
   H     -0.667814     -0.104744     -1.756632
   N      0.720873      0.946672      5.772942
   C     -0.210846      0.155498      4.894339
   H      0.951386      1.855283      5.336686
   H      1.602963      0.430612      5.928886
   H      0.287310      1.131326      6.693085
   H      0.295109      0.025378      3.932753
   H     -1.103572      0.770813      4.746056
   C     -0.618525     -1.219486      5.453431
   H      0.259078     -1.853791      5.600295
   H     -1.292742     -1.725205      4.757772
   H     -1.134199     -1.111162      6.410749
