    8
 0001.xyz Energy 0.115493
   C     -0.049687     -1.447499      0.138207
   C      0.005625      0.114126     -0.005010
   O      0.233431      0.784549      1.074554
   O     -0.187611      0.560526     -1.203485
   H      0.137186     -1.755726      1.174142
   H     -1.038014     -1.806248     -0.185819
   H      0.698558     -1.900516     -0.528912
  Br      0.000000      0.000000      4.300000
