    8
 0002.xyz Energy 0.101821
   C      1.005874      0.966137      0.414270
   C     -0.074911     -0.080360     -0.031813
   O      0.327339     -1.298489     -0.177334
   O     -1.262392      0.401142     -0.207887
   H      1.982209      0.487805      0.559372
   H      1.085396      1.753189     -0.350395
   H      0.681533      1.448063      1.348451
  Br      0.000000      0.000000      4.200000
