    8
 0004.xyz Energy 0.0870567
   C     -0.180315      1.318716      0.587619
   C      0.008412     -0.103378     -0.048205
   O     -1.041285     -0.646900     -0.567378
   O      1.209329     -0.578634      0.021689
   H     -1.215350      1.665252      0.479442
   H      0.090602      1.278006      1.653186
   H      0.505714      2.028203      0.101680
  Br      0.000000      0.000000      5.200000
