    8
 0006.xyz Energy 0.0906592
   C      1.449817      0.071856     -0.098441
   C     -0.113330     -0.007281      0.013592
   O     -0.589646     -0.461675      1.124209
   O     -0.757659      0.394868     -1.033343
   H      1.929637     -0.268945      0.827148
   H      1.784380     -0.548712     -0.943099
   H      1.746758      1.108638     -0.315358
  Br      0.000000      0.000000      5.800000
