    8
 0008.xyz Energy 0.120876
   C      0.418352      1.231709     -0.651689
   C     -0.029185     -0.099889      0.047454
   O      0.403952     -1.198742     -0.473825
   O     -0.793207      0.054445      1.079640
   H      1.074269      1.027445     -1.506754
   H     -0.473223      1.781820     -0.987782
   H      0.940452      1.867919      0.078237
  Br      0.000000      0.000000      4.300000
