    8
 0009.xyz Energy 0.0865926
   C     -0.405583     -0.171514      1.386690
   C      0.026233      0.011872     -0.110690
   O     -0.835637     -0.337165     -1.006331
   O      1.213120      0.496509     -0.282104
   H     -1.424821     -0.570542      1.457523
   H      0.298367     -0.854060      1.885760
   H     -0.345167      0.797553      1.903802
  Br      0.000000      0.000000      5.040000
