    8
 0010.xyz Energy 0.104464
   C     -1.219278     -0.784849     -0.119149
   C      0.095737      0.062489      0.003308
   O      0.646354      0.435847     -1.103148
   O      0.486783      0.293239      1.214421
   H     -1.499809     -0.928604     -1.169732
   H     -1.067218     -1.761567      0.363951
   H     -2.031654     -0.275290      0.419866
  Br      0.000000      0.000000      5.060000
