    8
 0011.xyz Energy 0.0777543
   C     -0.158809      0.729347      1.248862
   C      0.006405     -0.057905     -0.098425
   O     -1.065847     -0.572071     -0.601146
   O      1.214011     -0.105793     -0.559241
   H     -1.206833      0.742782      1.572207
   H      0.464950      0.257794      2.022844
   H      0.206062      1.758557      1.115665
  Br      0.000000      0.000000      5.760000
