    8
 0012.xyz Energy 0.0943111
   C      0.536944     -1.350630     -0.065681
   C     -0.041563      0.105961      0.011236
   O     -0.254706      0.580175      1.192977
   O     -0.244495      0.674851     -1.132503
   H      0.698066     -1.764806      0.937107
   H     -0.162491     -1.989138     -0.625666
   H      1.485506     -1.336161     -0.622604
  Br      0.000000      0.000000      5.600000
