    8
 0015.xyz Energy 0.0986677
   C      1.071681     -0.561380      0.808192
   C     -0.084728      0.048657     -0.059456
   O     -0.701101      1.068950      0.436436
   O     -0.294850     -0.547820     -1.187738
   H      1.204381      0.000945      1.740537
   H      0.838255     -1.612212      1.035681
   H      2.005997     -0.551242      0.227593
  Br      0.000000      0.000000      4.500000
