    8
 0016.xyz Energy 0.110081
   C     -1.338239      0.569908      0.033832
   C      0.106141     -0.041863     -0.007935
   O      0.795417      0.179281     -1.076959
   O      0.447989     -0.709305      1.045924
   H     -1.554896      1.133319     -0.881982
   H     -2.071748     -0.240977      0.155957
   H     -1.428816      1.228791      0.910081
  Br      0.000000      0.000000      4.560000
