    8
 0017.xyz Energy 0.079684
   C      0.147065     -0.558531      1.335379
   C     -0.006510      0.040885     -0.106618
   O      0.952042     -0.201231     -0.936907
   O     -1.089073      0.720691     -0.303791
   H      1.076742     -1.133338      1.426947
   H      0.139911      0.259931      2.070602
   H     -0.716355     -1.203942      1.554687
  Br      0.000000      0.000000      5.580000
