    8
 0019.xyz Energy 0.104164
   C     -1.232192      0.570898     -0.522113
   C      0.093915     -0.050185      0.041747
   O      0.016539     -1.253457      0.503233
   O      1.128708      0.723505     -0.017942
   H     -2.062312     -0.142827     -0.454398
   H     -1.475429      1.481761      0.045029
   H     -1.077577      0.868406     -1.569838
  Br      0.000000      0.000000      4.760000
