    8
 0020.xyz Energy 0.094338
   C     -1.434304     -0.137431      0.201760
   C      0.111599      0.015319     -0.019813
   O      0.483540      0.842266     -0.938855
   O      0.849396     -0.715118      0.751597
   H     -1.996576      0.519722     -0.472841
   H     -1.723218     -1.184981      0.029560
   H     -1.677113      0.102061      1.247624
  Br      0.000000      0.000000      5.180000
