    8
 0022.xyz Energy 0.11941
   C     -1.198735      0.301548     -0.767415
   C      0.091758     -0.020729      0.065056
   O      0.172805      0.518601      1.235258
   O      0.941443     -0.798931     -0.522646
   H     -1.879580      0.951540     -0.204345
   H     -0.909370      0.790413     -1.709628
   H     -1.707254     -0.638390     -1.028315
  Br      0.000000      0.000000      4.520000
