    8
 0024.xyz Energy 0.105849
   C      1.431454      0.011278      0.260069
   C     -0.111587     -0.005341     -0.024521
   O     -0.512200     -0.765906     -0.987781
   O     -0.818050      0.755984      0.746356
   H      1.965172     -0.665959     -0.417855
   H      1.811158      1.036781      0.139013
   H      1.611777     -0.284077      1.304288
  Br      0.000000      0.000000      4.420000
