    8
 0025.xyz Energy 0.0861505
   C      0.148328     -1.055792      0.990013
   C     -0.012821      0.078692     -0.082004
   O     -0.174131     -0.302211     -1.304997
   O      0.036600      1.283709      0.385380
   H      0.081306     -2.048167      0.527642
   H      1.120060     -0.943080      1.493519
   H     -0.632970     -0.945359      1.756513
  Br      0.000000      0.000000      5.360000
