    8
 0026.xyz Energy 0.095307
   C     -1.404395      0.293737     -0.241278
   C      0.111682     -0.020632      0.013522
   O      0.921243      0.211945     -0.964916
   O      0.383654     -0.485311      1.189558
   H     -1.559834      0.697304     -1.249276
   H     -1.991968     -0.627560     -0.112993
   H     -1.757429      1.015207      0.510381
  Br      0.000000      0.000000      5.600000
