    8
 0027.xyz Energy 0.104617
   C     -0.031643     -0.238146     -1.434959
   C     -0.002124      0.022666      0.112086
   O     -0.777976      0.954859      0.554679
   O      0.807948     -0.733790      0.778804
   H     -0.748613      0.425539     -1.933520
   H      0.975300     -0.078494     -1.848557
   H     -0.300080     -1.288515     -1.621534
  Br      0.000000      0.000000      5.380000
