    8
 0029.xyz Energy 0.0994094
   C      1.103258      0.620592      0.717294
   C     -0.089713     -0.049238     -0.051074
   O     -1.059696     -0.501211      0.671196
   O      0.034852     -0.075611     -1.338220
   H      0.924562      0.622110      1.799492
   H      2.031341      0.074074      0.492648
   H      1.234492      1.651716      0.357149
  Br      0.000000      0.000000      4.600000
