    8
 0030.xyz Energy 0.0848287
   C      0.150384     -0.857104      1.166011
   C     -0.017871      0.067184     -0.090821
   O     -1.226732      0.287524     -0.486961
   O      1.087551      0.508803     -0.596755
   H     -0.824222     -1.181482      1.550730
   H      0.754782     -1.734674      0.892044
   H      0.699699     -0.311606      1.947566
  Br      0.000000      0.000000      5.120000
