    8
 0032.xyz Energy 0.113748
   C     -0.896833      0.547971     -1.006102
   C      0.068134     -0.048596      0.077960
   O     -0.090746     -1.296741      0.367286
   O      0.924220      0.788091      0.567885
   H     -1.583211     -0.217705     -1.387823
   H     -1.469983      1.376690     -0.564277
   H     -0.302130      0.964478     -1.832537
  Br      0.000000      0.000000      4.560000
