    8
 0033.xyz Energy 0.0942539
   C      0.930194      1.118725      0.004025
   C     -0.073525     -0.087420      0.005759
   O     -0.441653     -0.529685      1.161485
   O     -0.422545     -0.510070     -1.165782
   H      1.170064      1.434089      1.026813
   H      1.850604      0.823360     -0.521418
   H      0.489067      1.958021     -0.553768
  Br      0.000000      0.000000      5.560000
