    8
 0034.xyz Energy 0.105905
   C     -0.419918      0.177421     -1.381671
   C      0.030640     -0.019577      0.108441
   O     -0.348931     -1.109876      0.686363
   O      0.739195      0.945613      0.597639
   H     -1.001772     -0.682597     -1.735085
   H     -1.023297      1.094130     -1.459546
   H      0.468895      0.315017     -2.015091
  Br      0.000000      0.000000      5.260000
