   12
 0000.xyz Energy -0.142566
   N     -0.102896      0.158194      0.661636
   C      0.117784     -0.181097     -0.757365
   H      0.218385     -0.596726      1.281806
   H     -1.099880      0.317019      0.858300
   H      0.404619      1.012897      0.925891
   H     -0.443785     -1.091705     -0.974204
   H      1.188737     -0.336730     -0.900891
   H     -0.241725      0.654883     -1.360411
   O      0.750762      0.508871      4.883063
   O     -0.757544     -0.746919      3.697763
   C      0.006632      0.232932      3.904771
   H      0.028628      1.003017      3.061094
