   12
 0001.xyz Energy -0.123156
   N     -0.197284     -0.631670     -0.188273
   C      0.225819      0.723068      0.215523
   H     -1.203264     -0.773412     -0.028113
   H      0.305507     -1.355085      0.342529
   H     -0.016338     -0.798703     -1.186911
   H      0.008705      0.837551      1.279168
   H     -0.340591      1.441331     -0.380329
   H      1.296642      0.810102      0.021783
   O     -0.172907      0.231838      5.703284
   O      0.451485     -0.402892      3.590423
   C     -0.272594      0.167379      4.449158
   H     -1.173763      0.720730      4.016719
