   12
 0002.xyz Energy -0.104722
   N      0.179319      0.132459     -0.650903
   C     -0.205269     -0.151611      0.745084
   H      0.320122      1.139782     -0.803255
   H     -0.544549     -0.182043     -1.310436
   H      1.055383     -0.344051     -0.902633
   H     -1.136886      0.379347      0.949434
   H      0.599130      0.203640      1.391999
   H     -0.339081     -1.230756      0.841596
   O     -0.033549      0.173374      4.193602
   O      0.102013     -0.503162      6.380118
   C     -0.066993      0.322704      5.444005
   H     -0.288466      1.389529      5.787720
