   12
 0003.xyz Energy -0.128517
   N      0.313613      0.193842      0.580902
   C     -0.358999     -0.221895     -0.664946
   H      0.029244     -0.394935      1.374763
   H      0.087784      1.167979      0.821605
   H      1.336318      0.125320      0.495480
   H     -1.435503     -0.127017     -0.510918
   H     -0.080836     -1.258452     -0.864784
   H     -0.017220      0.437526     -1.465024
   O     -0.692281      0.844839      4.089607
   O      0.380138     -0.992603      4.944390
   C      0.305443      0.144585      4.407594
   H      1.315125      0.622639      4.168195
