   12
 0004.xyz Energy -0.118375
   N     -0.225781     -0.460497      0.458629
   C      0.258443      0.527121     -0.524998
   H     -0.539696     -1.324963     -0.001691
   H     -1.019207     -0.092405      0.999798
   H      0.512650     -0.716499      1.127284
   H     -0.566623      0.756281     -1.202005
   H      1.095538      0.079075     -1.063782
   H      0.575254      1.416535      0.023040
   O      0.547377      0.256311      6.369998
   O     -0.241447     -0.143160      4.254552
   C     -0.299363     -0.110722      5.512535
   H     -1.288958     -0.476729      5.950766
