   12
 0005.xyz Energy -0.151033
   N     -0.029183      0.059305      0.684840
   C      0.033392     -0.067885     -0.783931
   H     -0.963006     -0.181270      1.042383
   H      0.179834      1.019965      0.987040
   H      0.648061     -0.563833      1.144142
   H     -0.704459      0.614527     -1.209931
   H     -0.196493     -1.104025     -1.039522
   H      1.043700      0.199431     -1.099518
   O      0.639468     -0.370720      5.313902
   O     -0.665720      0.022937      3.470413
   C      0.025684      0.340316      4.474484
   H      0.110650      1.465311      4.654683
