   12
 0008.xyz Energy -0.134897
   N      0.508056      0.441514      0.142547
   C     -0.581561     -0.505406     -0.163165
   H      1.383223     -0.052280      0.361612
   H      0.275175      1.032226      0.951685
   H      0.695862      1.066137     -0.652748
   H     -0.731700     -1.136443      0.714808
   H     -0.275209     -1.099758     -1.026100
   H     -1.477562      0.077146     -0.385848
   O     -0.138078     -1.015543      3.716842
   O      0.062611      1.137099      4.480247
   C      0.073847     -0.118940      4.575979
   H      0.317962     -0.512232      5.620506
