   12
 0009.xyz Energy -0.0956844
   N     -0.076765     -0.175417     -0.660841
   C      0.087885      0.200794      0.756458
   H      0.612055     -0.885256     -0.942609
   H      0.044358      0.636456     -1.280575
   H     -1.012243     -0.564001     -0.839178
   H      1.094748      0.603930      0.880132
   H     -0.051650     -0.698688      1.359137
   H     -0.667758      0.952543      0.992362
   O     -0.247045      0.577876      6.674906
   O     -0.044694     -0.411150      4.616311
   C      0.285475     -0.163148      5.806441
   H      1.229187     -0.702436      6.158410
