   12
 0010.xyz Energy -0.126946
   N     -0.395400     -0.110393     -0.552130
   C      0.452608      0.126379      0.632017
   H     -0.458791      0.729893     -1.141739
   H     -1.352719     -0.371355     -0.281358
   H     -0.020802     -0.870224     -1.135443
   H      0.004370      0.939094      1.206616
   H      1.449631      0.397890      0.279896
   H      0.479613     -0.797181      1.213464
   O      1.137506      0.157600      3.923269
   O     -1.035620     -0.495772      3.595304
   C     -0.099704      0.330908      3.761395
   H     -0.429202      1.424853      3.766022
