   12
 0011.xyz Energy -0.152091
   N     -0.575065      0.273813      0.260195
   C      0.658269     -0.313426     -0.297855
   H     -1.281522      0.426972     -0.471378
   H     -0.389330      1.181924      0.705970
   H     -0.993957     -0.340040      0.971274
   H      1.052050      0.381554     -1.041848
   H      0.395998     -1.269893     -0.754085
   H      1.364098     -0.450706      0.523567
   O      0.782945      0.590625      2.960667
   O     -0.796430     -0.283963      4.374032
   C      0.013192     -0.300079      3.409057
   H      0.056874     -1.292037      2.843886
