   12
 0012.xyz Energy -0.121145
   N     -0.071239      0.030081      0.683663
   C      0.081548     -0.034420     -0.782583
   H     -0.340033      0.973936      0.991275
   H      0.805609     -0.213567      1.162884
   H     -0.795663     -0.621098      1.013957
   H      0.860063      0.675244     -1.068726
   H     -0.877435      0.233138     -1.230383
   H      0.365684     -1.055518     -1.044115
   O      1.158959      0.039433      4.674087
   O     -1.091932     -0.243660      5.006166
   C     -0.065594      0.199840      4.425766
   H     -0.282331      0.860484      3.519190
