   12
 0013.xyz Energy -0.12978
   N      0.111039      0.041964      0.677705
   C     -0.127095     -0.048027     -0.775765
   H      0.607256      0.908704      0.923200
   H      0.680090     -0.746172      1.013717
   H     -0.772846      0.031811      1.203598
   H      0.843651     -0.032637     -1.274765
   H     -0.732840      0.811604     -1.068799
   H     -0.653874     -0.984163     -0.970512
   O      0.204159      0.521689      4.064336
   O      0.082290     -0.703897      5.998249
   C     -0.280298      0.178293      5.175329
   H     -1.206901      0.767748      5.490377
