   12
 0014.xyz Energy -0.11162
   N      0.661388      0.157459      0.105580
   C     -0.757087     -0.180244     -0.120844
   H      0.999439     -0.223936      0.998887
   H      0.804970      1.175635      0.129697
   H      1.260479     -0.221963     -0.639435
   H     -1.337239      0.248112      0.698620
   H     -0.843040     -1.268429     -0.135861
   H     -1.053996      0.250273     -1.079110
   O     -0.187868      0.347046      6.290724
   O      0.519602     -0.364696      4.229209
   C     -0.324608      0.017269      5.082636
   H     -1.397730      0.074389      4.694753
