   12
 0015.xyz Energy -0.119362
   N      0.058017      0.217798     -0.650056
   C     -0.066404     -0.249301      0.744117
   H      0.901975      0.791188     -0.779271
   H     -0.750378      0.790206     -0.927051
   H      0.117142     -0.572174     -1.306081
   H     -0.124484      0.630824      1.387229
   H      0.816906     -0.847415      0.976032
   H     -0.976118     -0.848537      0.815597
   O     -0.776656     -0.706479      4.953058
   O      0.500039      0.777198      3.759037
   C      0.270681     -0.069196      4.663437
   H      1.165438     -0.298012      5.336014
