   12
 0016.xyz Energy -0.0988714
   N      0.590169     -0.012084     -0.353454
   C     -0.675564      0.013845      0.404589
   H      0.851990      0.928077     -0.677928
   H      0.518188     -0.616643     -1.182433
   H      1.364682     -0.367563      0.222466
   H     -1.453579      0.398208     -0.257638
   H     -0.535134      0.668571      1.266780
   H     -0.897273     -1.007693      0.719358
   O     -0.307171     -1.106996      4.799943
   O      0.382419      0.983205      5.442170
   C     -0.073630      0.121139      4.644807
   H     -0.317068      0.521503      3.602812
