   12
 0017.xyz Energy -0.137272
   N      0.089511      0.008340      0.682124
   C     -0.102450     -0.009541     -0.780823
   H      0.767444      0.729185      0.962351
   H      0.439678     -0.895847      1.025211
   H     -0.792410      0.205210      1.173425
   H      0.863877     -0.222320     -1.241825
   H     -0.472960      0.972465     -1.081067
   H     -0.828699     -0.790902     -1.012794
   O     -0.421092      0.680405      3.980271
   O      0.537316     -0.862037      5.380007
   C     -0.113725      0.177728      5.093720
   H     -0.489724      0.765331      5.998515
