   12
 0018.xyz Energy -0.116411
   N      0.245691     -0.474469     -0.433463
   C     -0.281253      0.543114      0.496180
   H     -0.508834     -0.907397     -0.982100
   H      0.732267     -1.227038      0.071280
   H      0.915227     -0.064243     -1.097809
   H     -0.981701      0.047887      1.171243
   H     -0.783286      1.309613     -0.097288
   H      0.563542      0.962776      1.045707
   O      0.910657      0.575594      4.070106
   O     -0.829303     -0.794095      4.664598
   C     -0.079612      0.213805      4.759600
   H     -0.342711      0.920666      5.617757
