   12
 0019.xyz Energy -0.13087
   N     -0.502650      0.469579     -0.014608
   C      0.575382     -0.537520      0.016709
   H     -0.783137      0.688416     -0.979582
   H     -0.206687      1.349242      0.428653
   H     -1.339461      0.138390      0.483367
   H      1.430244     -0.128552     -0.525087
   H      0.201152     -1.442443     -0.465813
   H      0.826597     -0.725369      1.062356
   O     -1.039100     -0.433285      3.900809
   O      1.126605      0.274957      4.155846
   C     -0.085619      0.154931      4.476831
   H     -0.368761      0.667066      5.458083
