   12
 0020.xyz Energy -0.133865
   N      0.617660     -0.148922     -0.263994
   C     -0.707026      0.170465      0.302204
   H      1.112873     -0.843930      0.309998
   H      1.213254      0.687801     -0.319156
   H      0.536103     -0.533891     -1.214292
   H     -0.553286      0.572479      1.305367
   H     -1.288071     -0.753183      0.334181
   H     -1.179130      0.908920     -0.348623
   O      0.621635     -0.147541      3.331901
   O     -0.785422      0.383478      5.062549
   C      0.160265     -0.230869      4.501141
   H      0.690136     -0.994099      5.165989
