   12
 0021.xyz Energy -0.146123
   N      0.094778      0.087236      0.675856
   C     -0.108505     -0.099859     -0.773645
   H     -0.700573     -0.277951      1.216036
   H      0.199909      1.082241      0.914171
   H      0.939981     -0.399976      1.001702
   H     -1.015506      0.438028     -1.055802
   H     -0.212573     -1.170317     -0.960863
   H      0.764645      0.305641     -1.288380
   O     -0.655654      0.531232      3.744183
   O      0.694861     -0.761851      5.071202
   C     -0.038361      0.225662      4.798936
   H     -0.165240      0.971716      5.654863
