   12
 0022.xyz Energy -0.110857
   N      0.045854     -0.611114     -0.312748
   C     -0.052501      0.699539      0.357995
   H     -0.599886     -0.673064     -1.110821
   H     -0.183340     -1.379730      0.331131
   H      0.995805     -0.779160     -0.669502
   H     -1.078338      0.817288      0.712086
   H      0.201037      1.469020     -0.373701
   H      0.653125      0.702157      1.190976
   O      0.243150     -0.206161      6.035253
   O     -0.226595      0.540027      3.918776
   C     -0.016201     -0.326694      4.808414
   H     -0.069737     -1.406712      4.439631
