   12
 0024.xyz Energy -0.0958926
   N     -0.307899      0.506513     -0.349310
   C      0.352456     -0.579805      0.399841
   H     -0.349816      0.296386     -1.355207
   H      0.195263      1.396869     -0.239887
   H     -1.272273      0.654003     -0.023505
   H      1.366294     -0.686287      0.009482
   H     -0.226037     -1.492432      0.244217
   H      0.365361     -0.298228      1.454507
   O      0.529368      0.048058      4.709042
   O     -0.625291     -0.364354      6.646466
   C      0.093860      0.309503      5.861824
   H      0.404198      1.332676      6.264459
