   12
 0027.xyz Energy -0.112421
   N     -0.442148      0.307510     -0.428156
   C      0.506114     -0.352003      0.490116
   H     -1.165114      0.825540      0.088276
   H     -0.921001     -0.377380     -1.027744
   H      0.037256      0.976795     -1.044718
   H     -0.060737     -1.045735      1.113817
   H      0.979019      0.423640      1.095509
   H      1.243940     -0.881631     -0.115590
   O     -0.015470      0.096087      6.115829
   O      0.169578      0.220315      3.833888
   C     -0.150798     -0.309608      4.930914
   H     -0.649315     -1.333113      4.834869
