   12
 0028.xyz Energy -0.12035
   N      0.060337      0.025565     -0.684895
   C     -0.069057     -0.029272      0.783993
   H      0.610605     -0.766330     -1.042450
   H      0.528727      0.889696     -0.987828
   H     -0.859795     -0.004784     -1.143539
   H      0.935657      0.006416      1.209274
   H     -0.570929     -0.964234      1.040375
   H     -0.659851      0.832781      1.099588
   O      0.162555     -1.140599      4.145746
   O     -0.383241      1.086290      4.143899
   C      0.215945      0.053148      4.544549
   H      0.929840      0.228742      5.419092
