   12
 0029.xyz Energy -0.0954459
   N      0.042700      0.414122     -0.547772
   C     -0.048891     -0.474046      0.627025
   H     -0.880981      0.570801     -0.972039
   H      0.652604      0.014399     -1.273113
   H      0.426382      1.333856     -0.293220
   H     -0.460620     -1.428230      0.292961
   H     -0.706182      0.003423      1.356238
   H      0.958000     -0.600263      1.029534
   O     -0.021919      0.217668      6.839102
   O     -0.324241     -0.157904      4.597567
   C      0.338725     -0.058482      5.664112
   H      1.458496     -0.251795      5.545577
