   12
 0032.xyz Energy -0.144438
   N      0.172170      0.029654      0.665472
   C     -0.197084     -0.033958     -0.761759
   H      0.464647     -0.891060      1.018291
   H     -0.617876      0.345734      1.243227
   H      0.951037      0.682870      0.822294
   H     -1.024005     -0.739521     -0.861604
   H      0.678370     -0.373803     -1.318398
   H     -0.496248      0.968343     -1.074277
   O      0.927934      0.636385      4.261722
   O     -1.094155     -0.345477      3.810018
   C      0.162646     -0.284664      3.870659
   H      0.700417     -1.225659      3.509220
