   12
 0034.xyz Energy -0.110886
   N      0.262535      0.552832     -0.314368
   C     -0.300534     -0.632815      0.359856
   H     -0.285649      1.397812     -0.106428
   H      0.272054      0.433774     -1.335943
   H      1.230281      0.730171     -0.014474
   H     -1.322784     -0.766863      0.001218
   H     -0.283137     -0.445244      1.435158
   H      0.322134     -1.491326      0.100978
   O      0.417349     -1.046738      4.205094
   O     -0.080289      1.097210      4.847570
   C     -0.329823     -0.049382      4.389328
   H     -1.420126     -0.212730      4.089556
