   12
 0035.xyz Energy -0.128513
   N      0.513305      0.073169      0.452260
   C     -0.587582     -0.083764     -0.517689
   H      0.493498     -0.668197      1.164806
   H      0.454894      0.975361      0.942687
   H      1.430310      0.032014     -0.011772
   H     -1.528310     -0.031323      0.033552
   H     -0.469993     -1.054997     -1.002085
   H     -0.511794      0.728489     -1.243138
   O      0.684211      0.665996      4.998574
   O     -0.707144     -0.847524      3.983526
   C      0.022437      0.177626      4.044385
   H      0.096675      0.764893      3.067188
