   12
 0036.xyz Energy -0.127185
   N      0.436584      0.016832      0.531494
   C     -0.499756     -0.019254     -0.608395
   H      0.244585      0.816547      1.149013
   H      1.411268      0.098528      0.213380
   H      0.367348     -0.837183      1.100514
   H     -0.378474      0.909104     -1.169669
   H     -1.511272     -0.106123     -0.207082
   H     -0.245251     -0.885341     -1.222311
   O      0.675800     -0.634284      5.177418
   O     -0.883702      0.628316      4.068037
   C      0.203433      0.005844      4.200672
   H      0.876013      0.025103      3.277325
