   12
 0037.xyz Energy -0.144166
   N      0.491200      0.454007      0.161167
   C     -0.562264     -0.519704     -0.184494
   H      1.215219      0.497441     -0.567976
   H      0.956016      0.205485      1.044378
   H      0.104936      1.400977      0.270560
   H     -0.091288     -1.499216     -0.286104
   H     -1.014757     -0.202089     -1.125840
   H     -1.296043     -0.518812      0.623800
   O     -0.938716     -0.598072      3.213603
   O      1.018574      0.287579      4.014584
   C     -0.078137      0.303828      3.394997
   H     -0.336533      1.308182      2.915609
