   12
 0039.xyz Energy -0.118751
   N     -0.196990     -0.125881      0.647088
   C      0.225482      0.144088     -0.740721
   H     -0.810337     -0.949833      0.698551
   H     -0.714251      0.670132      1.042921
   H      0.611797     -0.303531      1.257190
   H     -0.672857      0.323597     -1.334312
   H      0.765954     -0.732953     -1.101899
   H      0.870278      1.024914     -0.728140
   O      0.732704     -0.271422      4.522743
   O     -0.955505      0.300767      5.964784
   C      0.218012     -0.028713      5.646625
   H      0.938795     -0.123661      6.527967
