   12
 0042.xyz Energy 0.0515894
   N     -0.103000      0.158000      0.662000
   C      0.118000     -0.181000     -0.757000
   H      0.218000     -0.597000      1.282000
   H     -1.100000      0.317000      0.858000
   H      0.405000      1.013000      0.926000
   H     -0.444000     -1.092000     -0.974000
   H      1.189000     -0.337000     -0.901000
   H     -0.242000      0.655000     -1.360000
   O      0.976600      0.515000      3.602000
   O     -0.532400     -0.741000      2.417000
   C      0.232600      0.239000      2.624000
   H      0.254600      1.009000      1.780000
