   12
 0043.xyz Energy -0.216851
   N     -0.366000      0.201000      0.503000
   C      0.469000     -0.396000     -0.521000
   H     -1.141000      0.798000      0.226000
   H      0.199000      0.735000      1.215000
   H     -0.751000     -0.518000      1.171000
   H      0.921000      0.409000     -1.103000
   H     -0.164000     -1.022000     -1.153000
   H      1.238000     -0.996000     -0.029000
   O      0.579460      0.806400      2.778660
   O     -0.761540     -0.961600      2.717660
   C     -0.019540     -0.152600      3.348660
   H      0.113460     -0.292600      4.453660
