   12
 0045.xyz Energy -0.216402
   N     -0.366000      0.201000      0.503000
   C      0.469000     -0.396000     -0.521000
   H     -1.141000      0.798000      0.226000
   H      0.199000      0.735000      1.215000
   H     -0.751000     -0.518000      1.171000
   H      0.921000      0.409000     -1.103000
   H     -0.164000     -1.022000     -1.153000
   H      1.238000     -0.996000     -0.029000
   O      0.572000      0.805000      2.748000
   O     -0.769000     -0.963000      2.687000
   C     -0.027000     -0.154000      3.318000
   H      0.106000     -0.294000      4.423000
