   12
 0047.xyz Energy -0.207537
   N     -0.366000      0.201000      0.503000
   C      0.469000     -0.396000     -0.521000
   H     -1.141000      0.798000      0.226000
   H      0.199000      0.735000      1.215000
   H     -0.751000     -0.518000      1.171000
   H      0.921000      0.409000     -1.103000
   H     -0.164000     -1.022000     -1.153000
   H      1.238000     -0.996000     -0.029000
   O      0.534700      0.798000      2.594700
   O     -0.806300     -0.970000      2.533700
   C     -0.064300     -0.161000      3.164700
   H      0.068700     -0.301000      4.269700
