    8
 0000.xyz Energy 0.0934666
   C     -0.342148     -0.537405      1.308034
   C      0.031338      0.038065     -0.103201
   O      1.087510     -0.449080     -0.663567
   O     -0.769864      0.948989     -0.551809
   H      0.368276     -1.313269      1.618550
   H     -0.346634      0.280958      2.043390
   H     -1.360167     -0.952842      1.273472
   F      0.000000      0.000000      4.420000
