    8
 0001.xyz Energy 0.105397
   C     -1.161974     -0.406089      0.775714
   C      0.094227      0.033125     -0.055727
   O      1.076825      0.542082      0.609317
   O      0.002602     -0.164652     -1.330657
   H     -1.009696     -0.224470      1.846654
   H     -2.042549      0.151718      0.423685
   H     -1.358705     -1.474135      0.600448
   F      0.000000      0.000000      4.260000
