    8
 0002.xyz Energy 0.100321
   C     -0.196516      1.203482      0.793621
   C      0.011866     -0.092158     -0.066690
   O     -0.679167     -0.179969     -1.153696
   O      0.861963     -0.938687      0.416714
   H     -0.916209      1.881258      0.318490
   H     -0.554827      0.920038      1.794500
   H      0.769726      1.713085      0.923339
   F      0.000000      0.000000      4.440000
