    8
 0004.xyz Energy 0.118
   C     -1.193241      0.206410     -0.806470
   C      0.095575     -0.020486      0.059391
   O      0.865634     -0.993637     -0.296708
   O      0.242928      0.802097      1.046609
   H     -1.246077     -0.513966     -1.631912
   H     -2.082218      0.106552     -0.165975
   H     -1.188599      1.232345     -1.203433
   F      0.000000      0.000000      4.640000
