    8
 0007.xyz Energy 0.10177
   C     -0.666458      0.443516      1.214887
   C      0.057610     -0.032600     -0.093273
   O      1.292848      0.317603     -0.228790
   O     -0.674074     -0.729783     -0.900447
   H      0.014882      1.014036      1.857825
   H     -1.532665      1.065313      0.943706
   H     -1.049250     -0.433096      1.758179
   F      0.000000      0.000000      4.040000
