    8
 0009.xyz Energy 0.131361
   C     -0.885213      0.321011     -1.109132
   C      0.073495     -0.027648      0.083159
   O      1.122190     -0.723535     -0.204592
   O     -0.300062      0.425288      1.235661
   H     -0.500649     -0.079661     -2.054996
   H     -1.883064     -0.095193     -0.905286
   H     -0.993869      1.413347     -1.180833
   F      0.000000      0.000000      4.400000
