    8
 0012.xyz Energy 0.119664
   C      0.587748      1.234537     -0.497285
   C     -0.051652     -0.094282      0.039044
   O     -1.303691     -0.047132      0.350487
   O      0.758070     -1.100270      0.111808
   H     -0.156540      2.038678     -0.547075
   H      1.414893      1.531506      0.164626
   H      1.014401      1.055743     -1.495356
   F      0.000000      0.000000      4.080000
