    8
 0013.xyz Energy 0.107562
   C     -1.392608      0.279571     -0.315127
   C      0.107741     -0.027472      0.026809
   O      0.342228     -1.132204      0.652431
   O      0.951999      0.873008     -0.359611
   H     -2.048990     -0.530034      0.026617
   H     -1.686756      1.225927      0.162758
   H     -1.497600      0.414417     -1.401836
   F      0.000000      0.000000      4.680000
