    8
 0016.xyz Energy 0.134827
   C      0.141332     -1.375914     -0.451342
   C     -0.017027      0.107041      0.036520
   O     -1.216810      0.500592      0.305700
   O      1.085997      0.778145      0.113429
   H     -0.828118     -1.888300     -0.478068
   H      0.594386     -1.381050     -1.453939
   H      0.828978     -1.908716      0.222014
   F      0.000000      0.000000      3.380000
