    8
 0018.xyz Energy 0.117605
   C      1.341907     -0.347132      0.442275
   C     -0.104216      0.024678     -0.040144
   O     -0.379037     -0.216813     -1.278278
   O     -0.867990      0.539808      0.867735
   H      1.927534     -0.791443     -0.371798
   H      1.844398      0.558850      0.812659
   H      1.274351     -1.052080      1.284076
   F      0.000000      0.000000      4.140000
