    8
 0019.xyz Energy 0.108245
   C      1.311098      0.612917      0.148921
   C     -0.101746     -0.051777     -0.006945
   O     -0.348968     -1.065892      0.752839
   O     -0.869425      0.496544     -0.891801
   H      1.901147      0.108782      0.924020
   H      1.841569      0.566401     -0.813847
   H      1.186735      1.675791      0.403828
   F      0.000000      0.000000      4.540000
