    8
 0021.xyz Energy 0.138714
   C     -0.359402     -1.324845      0.482119
   C      0.026405      0.102443     -0.043470
   O     -0.060630      0.290750     -1.317748
   O      0.394964      0.940466      0.870225
   H     -0.675558     -1.976617     -0.341486
   H      0.506073     -1.767280      0.997570
   H     -1.169542     -1.233601      1.220694
   F      0.000000      0.000000      3.380000
