    8
 0023.xyz Energy 0.123223
   C     -0.292331      1.419958      0.122825
   C      0.021447     -0.112282     -0.003777
   O     -0.030979     -0.803603      1.085327
   O      0.302962     -0.515803     -1.199969
   H     -0.536608      1.688637      1.157826
   H      0.580058      1.997722     -0.217189
   H     -1.132894      1.674883     -0.539452
   F      0.000000      0.000000      4.180000
