    8
 0024.xyz Energy 0.108984
   C      0.476480      1.216824      0.639632
   C     -0.033996     -0.098859     -0.046396
   O      0.513354     -1.201673      0.342230
   O     -0.956305      0.071246     -0.937107
   H      1.243856      0.997516      1.392045
   H      0.887260      1.889700     -0.127821
   H     -0.372616      1.734878      1.109526
   F      0.000000      0.000000      4.020000
