    8
 0025.xyz Energy 0.107577
   C      1.339033     -0.512431      0.247444
   C     -0.107092      0.034544     -0.020482
   O     -0.979881     -0.821671     -0.435156
   O     -0.264204      1.298416      0.205124
   H      1.396107     -1.590056      0.051095
   H      2.053697      0.022817     -0.395402
   H      1.618301     -0.305839      1.291222
   F      0.000000      0.000000      4.160000
