    8
 0026.xyz Energy 0.107975
   C      1.365457      0.110890      0.489952
   C     -0.108498     -0.003251     -0.036042
   O     -0.925446      0.926633      0.331017
   O     -0.343354     -1.030286     -0.786373
   H      1.496676      1.009750      1.104704
   H      1.609715     -0.784626      1.080608
   H      2.055916      0.137567     -0.366026
   F      0.000000      0.000000      4.140000
