    8
 0027.xyz Energy 0.0782556
   C     -0.479936      0.288695      1.342810
   C      0.032322     -0.025278     -0.106760
   O     -0.744605     -0.738914     -0.851023
   O      1.191172      0.470715     -0.396613
   H     -1.471439     -0.147898      1.514265
   H      0.236594     -0.112379      2.075073
   H     -0.519926      1.378646      1.486171
   F      0.000000      0.000000      5.820000
