    8
 0028.xyz Energy 0.099254
   C      0.957836      0.310957      1.050085
   C     -0.072303     -0.020567     -0.086201
   O      0.023403      0.672145     -1.171471
   O     -0.913877     -0.961325      0.196084
   H      1.648062      1.104216      0.737973
   H      0.412852      0.623892      1.953163
   H      1.521957     -0.598125      1.305981
   F      0.000000      0.000000      4.240000
