    8
 0029.xyz Energy 0.126682
   C     -0.163448     -1.371029      0.458679
   C      0.016179      0.108882     -0.031054
   O      0.610425      0.917154      0.781588
   O     -0.459020      0.356828     -1.208197
   H      0.274539     -1.513273      1.454179
   H     -1.235582     -1.616778      0.483630
   H      0.312584     -2.052686     -0.261654
   F      0.000000      0.000000      3.600000
