    8
 0031.xyz Energy 0.087376
   C      0.460888     -0.252122      1.356776
   C     -0.030511      0.018892     -0.108598
   O      0.880056      0.067089     -1.022581
   O     -1.308844      0.167476     -0.238002
   H      1.549410     -0.382841      1.390240
   H      0.165879      0.590687      1.999526
   H     -0.037330     -1.152038      1.746742
   F      0.000000      0.000000      5.020000
