    8
 0033.xyz Energy 0.106216
   C      1.327724      0.496691     -0.327520
   C     -0.103242     -0.037729      0.031606
   O     -0.394510     -0.107214      1.287454
   O     -0.839317     -0.354644     -0.983635
   H      1.889375      0.759701      0.577168
   H      1.871020     -0.274641     -0.893527
   H      1.233764      1.377231     -0.980179
   F      0.000000      0.000000      5.220000
