    8
 0034.xyz Energy 0.108924
   C      1.352562      0.451622     -0.288855
   C     -0.107766     -0.029742      0.024151
   O     -0.907812      0.847363      0.531530
   O     -0.348874     -1.267616     -0.263060
   H      1.481676      1.511076     -0.035927
   H      2.066000     -0.158977      0.284435
   H      1.567271      0.291646     -1.355837
   F      0.000000      0.000000      4.540000
