    8
 0000.xyz Energy -0.00648196
   H      0.291328      0.900217      0.391537
   N     -0.000002     -0.000005     -0.000002
   H      0.321960     -0.070780     -0.969443
   H      0.408041     -0.760169      0.551541
   H     -1.021306     -0.069199      0.026394
   O     -0.028342     -0.053356      3.154779
   H     -0.102145      0.278466      4.054539
   H      0.552048      0.568505      2.705826
