    8
 0001.xyz Energy -0.00973514
   H     -0.734485      0.667299     -0.252605
   N      0.000004     -0.000004      0.000001
   H      0.595033     -0.177053     -0.814294
   H      0.567098      0.387874      0.759280
   H     -0.427702     -0.878069      0.307600
   O      0.058427      0.029536      3.420474
   H     -0.807286      0.444130      3.481924
   H     -0.120178     -0.912978      3.350545
