    8
 0002.xyz Energy -0.0155494
   H      0.284180      0.941907      0.283931
   N     -0.000002     -0.000005     -0.000002
   H     -0.546962      0.054395     -0.863921
   H      0.832698     -0.574412     -0.158800
   H     -0.569894     -0.421819      0.738811
   O     -0.013512      0.057080      3.110922
   H      0.801080     -0.194282      3.556318
   H     -0.586583     -0.711805      3.185266
