    8
 0003.xyz Energy -0.00339236
   H     -0.961816      0.349578      0.035623
   N      0.000005     -0.000002     -0.000000
   H     -0.010192     -1.022661     -0.050479
   H      0.470080      0.377925     -0.827496
   H      0.501855      0.295184      0.842354
   O      0.024903      0.055356      3.284531
   H     -0.788479     -0.047875      2.781665
   H      0.393162     -0.830849      3.348935
