    8
 0004.xyz Energy 0.000925259
   H      0.809418     -0.578566     -0.242217
   N     -0.000004      0.000003      0.000001
   H      0.204421      0.534597      0.849061
   H     -0.200931      0.645093     -0.769438
   H     -0.812846     -0.601168      0.162575
   O     -0.030608      0.052222      3.744946
   H     -0.235050     -0.874870      3.899301
   H      0.720915      0.045905      3.144700
