    8
 0005.xyz Energy -0.0100598
   H     -0.410867     -0.173882      0.921693
   N      0.000002      0.000001     -0.000005
   H      1.015390     -0.122186      0.050396
   H     -0.390115     -0.661025     -0.677797
   H     -0.214440      0.957079     -0.294222
   O     -0.055659      0.032830      3.669488
   H      0.786283      0.389116      3.968345
   H      0.097246     -0.910264      3.558519
