    8
 0007.xyz Energy -0.00556493
   H      0.129557     -0.874971     -0.515951
   N     -0.000001      0.000005      0.000003
   H     -0.983342      0.281613     -0.047110
   H      0.269146     -0.137624      0.978352
   H      0.584649      0.730916     -0.415330
   O      0.062653      0.000512      3.538991
   H     -0.440065     -0.746386      3.200554
   H     -0.554481      0.738257      3.537990
