    8
 0008.xyz Energy 0.00722022
   H     -0.210508     -0.904145     -0.432171
   N      0.000001      0.000005      0.000002
   H      0.729763     -0.121726      0.707895
   H      0.326186      0.653608     -0.717601
   H     -0.845457      0.372195      0.441844
   O      0.044892      0.037206      3.849777
   H     -0.260414      0.104030      2.940138
   H     -0.452194     -0.694640      4.227175
