    8
 0009.xyz Energy -0.00273643
   H     -0.383562     -0.651943     -0.690229
   N      0.000002      0.000004      0.000004
   H     -0.614529      0.031110      0.818458
   H      0.932163     -0.313868      0.284800
   H      0.065898      0.934652     -0.413081
   O      0.059974     -0.026256      3.639908
   H     -0.241926      0.741346      4.134644
   H     -0.710095     -0.324551      3.146819
