    8
 0010.xyz Energy -0.0161873
   H     -0.818591      0.608856     -0.088132
   N      0.000004     -0.000003      0.000000
   H      0.819818      0.563366      0.242907
   H     -0.167723     -0.693154      0.734819
   H      0.166434     -0.479022     -0.889601
   O     -0.018745     -0.039975      3.371659
   H     -0.152060      0.910814      3.429518
   H      0.449620     -0.276244      4.177843
