    8
 0012.xyz Energy -0.0174056
   H     -0.311390     -0.974299      0.048407
   N      0.000002      0.000005     -0.000000
   H      1.019597      0.037158      0.086769
   H     -0.281093      0.403937     -0.897983
   H     -0.427137      0.533129      0.762810
   O      0.028235     -0.031191      3.329839
   H      0.099239      0.901587      3.553457
   H     -0.547444     -0.406467      4.002804
