    8
 0013.xyz Energy -0.0107387
   H     -0.586818     -0.449158     -0.708849
   N      0.000003      0.000002      0.000004
   H      0.905936      0.242875     -0.410826
   H     -0.461258      0.850154      0.336201
   H      0.142095     -0.643906      0.783420
   O      0.056414     -0.014689      3.430202
   H     -0.594267      0.640456      3.160905
   H     -0.301248     -0.407286      4.232116
