    8
 0014.xyz Energy -0.0170034
   H      1.022053      0.002762      0.062959
   N     -0.000006     -0.000000     -0.000000
   H     -0.336475     -0.965973     -0.046555
   H     -0.394079      0.459279      0.826025
   H     -0.291422      0.503932     -0.842424
   O      0.011119      0.036948      3.547109
   H     -0.776827      0.026792      4.098615
   H      0.600321     -0.613310      3.940971
