    8
 0015.xyz Energy -0.009666
   H      1.009413     -0.161538      0.059626
   N     -0.000006      0.000001     -0.000000
   H     -0.498781     -0.836855      0.315242
   H     -0.254411      0.793477      0.595165
   H     -0.256145      0.204904     -0.970029
   O      0.049637      0.042690      3.140116
   H     -0.891588      0.239717      3.160056
   H      0.103651     -0.917373      3.118102
