    8
 0017.xyz Energy 0.0112103
   H      0.270055      0.927749     -0.338992
   N     -0.000001     -0.000005      0.000002
   H     -0.896259      0.063613      0.491080
   H     -0.090460     -0.640447     -0.793849
   H      0.716684     -0.350845      0.641735
   O      0.008941      0.012226      3.483693
   H      0.168729     -0.814325      3.018503
   H     -0.310652      0.620254      2.810430
