    8
 0018.xyz Energy -0.0150364
   H      0.195823      0.783969      0.628976
   N     -0.000001     -0.000004     -0.000003
   H     -0.581267     -0.689598      0.484841
   H     -0.495594      0.342361     -0.828086
   H      0.881053     -0.436673     -0.285683
   O      0.051015      0.009118      3.179993
   H      0.007442     -0.563826      3.951328
   H     -0.817252      0.419082      3.123747
