    8
 0019.xyz Energy 0.000215489
   H      0.689445     -0.740452      0.157993
   N     -0.000004      0.000004     -0.000001
   H     -0.937382     -0.409873     -0.042487
   H      0.042618      0.675618      0.768294
   H      0.205372      0.474650     -0.883788
   O     -0.016058     -0.057580      3.486701
   H      0.784773      0.158566      2.999800
   H     -0.529872      0.755454      3.496342
