    8
 0021.xyz Energy -0.0114839
   H     -0.609560     -0.137753     -0.811187
   N      0.000003      0.000001      0.000004
   H      0.054721     -0.869856      0.537440
   H      0.936803      0.264265     -0.317986
   H     -0.382010      0.743334      0.591672
   O     -0.064256     -0.006075      2.989023
   H      0.622929     -0.656444      2.816053
   H      0.397072      0.752879      3.358194
