    8
 0022.xyz Energy -0.00460765
   H     -1.006828     -0.183237     -0.035860
   N      0.000005      0.000001      0.000000
   H      0.161927      1.010402      0.036788
   H      0.397469     -0.440005      0.834845
   H      0.447356     -0.387174     -0.835776
   O     -0.034259      0.049070      3.653454
   H     -0.100101     -0.292409      4.550214
   H      0.643932     -0.486525      3.231180
