    8
 0024.xyz Energy -0.00325048
   H     -0.685265      0.760904      0.000891
   N      0.000004     -0.000004     -0.000000
   H     -0.488960     -0.899669      0.000014
   H      0.586400      0.069772     -0.836552
   H      0.587773      0.069051      0.835647
   O     -0.034459     -0.051687      3.280671
   H      0.920189      0.062960      3.305643
   H     -0.373181      0.757514      2.886230
