    8
 0025.xyz Energy 0.00228001
   H      0.908042      0.450176     -0.146172
   N     -0.000005     -0.000002      0.000001
   H      0.138698     -0.999333      0.174878
   H     -0.466374      0.426048      0.805934
   H     -0.580297      0.123143     -0.834652
   O     -0.024935      0.057682      3.758366
   H     -0.317791     -0.502089      3.033097
   H      0.713613     -0.413550      4.155366
