    8
 0026.xyz Energy 0.00153453
   H      0.245337     -0.623266     -0.774541
   N     -0.000001      0.000003      0.000004
   H     -0.893058      0.458880     -0.200905
   H     -0.082640     -0.544547      0.863244
   H      0.730381      0.708886      0.112143
   O     -0.030774      0.055479      3.856165
   H     -0.141772     -0.812742      4.254906
   H      0.630283     -0.067925      3.168491
