    8
 0029.xyz Energy 0.00978403
   H      0.002927      0.918794      0.452078
   N     -0.000000     -0.000005     -0.000002
   H     -0.616907     -0.632857      0.517113
   H     -0.336829      0.094224     -0.962403
   H      0.950809     -0.380091     -0.006753
   O      0.021401      0.048281      3.758694
   H     -0.086480      0.068509      2.803145
   H     -0.253237     -0.834915      4.022626
