    8
 0030.xyz Energy -0.034951
   H      1.010000     -0.363000     -1.621000
   N      0.149000      0.103000     -1.331000
   H     -0.646000     -0.332000     -1.799000
   H      0.031000      0.019000     -0.262000
   H      0.199000      1.088000     -1.595000
   O     -0.145460     -0.101360      1.299620
   H     -0.519460      0.591640      1.864620
   H      0.104540     -0.876360      1.823620
