    8
 0035.xyz Energy -0.021385
   H      1.010000     -0.363000     -1.621000
   N      0.149000      0.103000     -1.331000
   H     -0.646000     -0.332000     -1.799000
   H      0.031000      0.019000     -0.262000
   H      0.199000      1.088000     -1.595000
   O     -0.110860     -0.077760      0.993420
   H     -0.484860      0.615240      1.558420
   H      0.139140     -0.852760      1.517420
