    8
 0036.xyz Energy 0.00379238
   H      1.010000     -0.363000     -1.621000
   N      0.149000      0.103000     -1.331000
   H     -0.646000     -0.332000     -1.799000
   H      0.031000      0.019000     -0.262000
   H      0.199000      1.088000     -1.595000
   O     -0.093560     -0.065960      0.840320
   H     -0.467560      0.627040      1.405320
   H      0.156440     -0.840960      1.364320
