    8
 0018.xyz Energy -0.103831
   C     -0.007000      0.028000     -0.069000
   C     -0.049000      0.037000      1.442000
   O      0.946000     -0.621000      1.978000
   O     -1.017000      0.397000      2.081000
   H      0.951000      0.415000     -0.424000
   H     -0.128000     -0.990000     -0.446000
   H     -0.805000      0.652000     -0.478000
  Li     -2.837800      0.907400     -2.527000
