    8
 0028.xyz Energy -0.122783
   C     -0.669401     -1.162581      0.563145
   C      0.057940      0.088463     -0.043575
   O      1.348762      0.065706     -0.034572
   O     -0.727205      1.014983     -0.488618
   H      0.054279     -1.912265      0.905706
   H     -1.301352     -0.841508      1.404593
   H     -1.333009     -1.601282     -0.196665
  Li      0.000000      0.000000      3.920000
