    8
 0031.xyz Energy -0.114913
   C     -1.284928     -0.679343     -0.065391
   C      0.101839      0.052055     -0.000762
   O      0.844230     -0.025201     -1.054188
   O      0.349804      0.656443      1.115565
   H     -1.434910     -1.155489     -1.042057
   H     -1.332331     -1.437093      0.730884
   H     -2.088486      0.047374      0.125186
  Li      0.000000      0.000000      5.060000
