    8
 0033.xyz Energy -0.141495
   C      0.358325     -1.404921      0.120927
   C     -0.033860      0.108703     -0.010894
   O     -1.225016      0.360518     -0.440494
   O      0.892630      0.945173      0.328063
   H     -0.476400     -2.055495     -0.167301
   H      1.230009     -1.610308     -0.518188
   H      0.656172     -1.614260      1.159006
  Li      0.000000      0.000000      3.540000
