    8
 0035.xyz Energy -0.112619
   C     -1.352246     -0.391598      0.367295
   C      0.103971      0.035812     -0.031449
   O      0.213739      1.085931     -0.774429
   O      1.043045     -0.722611      0.433192
   H     -2.094446      0.301878     -0.046610
   H     -1.545100     -1.409679     -0.002577
   H     -1.435489     -0.419790      1.463844
  Li      0.000000      0.000000      4.520000
