    8
 0037.xyz Energy -0.170775
   C      1.088444      0.378712     -0.888082
   C     -0.086931     -0.023844      0.070399
   O     -0.720335      0.943814      0.644208
   O     -0.290855     -1.296285      0.181145
   H      1.194624      1.468865     -0.946210
   H      2.024311     -0.068792     -0.521504
   H      0.898094     -0.033763     -1.889968
  Li      0.000000      0.000000      3.420000
