    8
 0038.xyz Energy -0.099731
   C     -0.461503     -0.621124      1.232089
   C      0.030645      0.051056     -0.097651
   O     -0.870468      0.628203     -0.819951
   O      1.299808     -0.051394     -0.324998
   H     -1.541082     -0.482969      1.368142
   H     -0.222702     -1.694781      1.205261
   H      0.082792     -0.185249      2.082911
  Li      0.000000      0.000000      5.040000
