    8
 0043.xyz Energy -0.149828
   C      1.016288      0.029229     -1.040735
   C     -0.083355      0.001313      0.078305
   O     -1.106973      0.767676     -0.099780
   O      0.162994     -0.795021      1.067305
   H      0.736012      0.711422     -1.852612
   H      1.973449      0.345970     -0.600279
   H      1.157917     -0.987268     -1.436740
  Li      0.000000      0.000000      4.240000
