    8
 0044.xyz Energy -0.106235
   C      1.074092     -0.476331      0.858055
   C     -0.082344      0.043129     -0.066639
   O     -0.205487      1.323993     -0.171725
   O     -0.792934     -0.881880     -0.625547
   H      1.643177      0.358449      1.285102
   H      0.645106     -1.087963      1.665745
   H      1.742416     -1.126303      0.274082
  Li      0.000000      0.000000      4.580000
