    8
 0046.xyz Energy -0.0875822
   C      0.401013      0.665882      1.229883
   C     -0.033656     -0.056963     -0.093295
   O     -0.492774     -1.257371      0.029393
   O      0.120509      0.638948     -1.172599
   H      0.229166      0.025979      2.103999
   H      1.466844      0.930891      1.164621
   H     -0.164322      1.603760      1.334407
  Li      0.000000      0.000000      5.740000
