    8
 0048.xyz Energy -0.145756
   C      0.880616     -1.037855      0.514000
   C     -0.069672      0.078406     -0.045604
   O     -0.422368     -0.031340     -1.282690
   O     -0.395750      0.996170      0.805475
   H      1.102852     -1.788610     -0.254156
   H      1.814892     -0.575411      0.865796
   H      0.405400     -1.518356      1.382005
  Li      0.000000      0.000000      3.880000
