    8
 0050.xyz Energy -0.103709
   C     -0.569234     -1.230640      0.527561
   C      0.049310      0.093429     -0.043828
   O      1.208390     -0.006187     -0.603678
   O     -0.679757      1.150103      0.113830
   H      0.092942     -2.086035      0.346155
   H     -0.740861     -1.113567      1.607988
   H     -1.547893     -1.407281      0.057274
  Li      0.000000      0.000000      4.740000
