    8
 0054.xyz Energy -0.130689
   C     -0.380946      1.403738     -0.034974
   C      0.030560     -0.110166     -0.003328
   O      0.187212     -0.689232     -1.146552
   O      0.166536     -0.615267      1.179609
   H     -0.462980      1.769005     -1.065962
   H     -1.343418      1.528468      0.483268
   H      0.366397      1.995210      0.514374
  Li      0.000000      0.000000      4.640000
