    8
 0056.xyz Energy -0.115226
   C     -1.222655      0.258889     -0.744926
   C      0.099276     -0.019150      0.053470
   O      1.195782     -0.017594     -0.628067
   O     -0.059934     -0.223284      1.320726
   H     -1.012434      0.437670     -1.806496
   H     -1.898570     -0.602597     -0.637842
   H     -1.732622      1.131767     -0.311151
  Li      0.000000      0.000000      5.340000
