    8
 0059.xyz Energy -0.0962493
   C     -0.490532      0.552870      1.253210
   C      0.042340     -0.047012     -0.095282
   O      1.042881     -0.858470     -0.009999
   O     -0.587273      0.345191     -1.154867
   H      0.077336      0.166947      2.108590
   H     -0.412910      1.649768      1.217499
   H     -1.555838      0.302992      1.366476
  Li      0.000000      0.000000      5.280000
