    8
 0060.xyz Energy -0.111151
   C      1.011329     -0.877457      0.569304
   C     -0.075799      0.073707     -0.043627
   O      0.152357      1.341505      0.042700
   O     -1.092573     -0.526553     -0.571657
   H      1.849029     -0.303757      0.984291
   H      0.552067     -1.491734      1.358118
   H      1.375584     -1.563125     -0.210005
  Li      0.000000      0.000000      4.380000
