    8
 0061.xyz Energy -0.0891409
   C      0.371185     -0.705100      1.217324
   C     -0.023771      0.058267     -0.095506
   O      0.792206      0.974424     -0.497573
   O     -1.137725     -0.319331     -0.633541
   H      1.330488     -0.345813      1.609416
   H     -0.417588     -0.561969      1.970874
   H      0.431889     -1.783124      1.006793
  Li      0.000000      0.000000      5.540000
