    8
 0062.xyz Energy -0.149655
   C     -1.355641     -0.149121      0.506777
   C      0.104680      0.009321     -0.045131
   O      0.338013     -0.492639     -1.211497
   O      0.921947      0.631259      0.741142
   H     -1.996120     -0.670200     -0.215268
   H     -1.326491     -0.709713      1.453018
   H     -1.770826      0.845402      0.727436
  Li      0.000000      0.000000      3.720000
