    8
 0064.xyz Energy -0.114449
   C     -0.781691      0.898893      0.835328
   C      0.066419     -0.068998     -0.062523
   O      1.346241     -0.037399      0.104441
   O     -0.620291     -0.797913     -0.881101
   H     -0.138700      1.473158      1.513464
   H     -1.351716      1.584605      0.190847
   H     -1.509718      0.312489      1.415200
  Li      0.000000      0.000000      4.320000
