    8
 0065.xyz Energy -0.141581
   C      0.676144     -1.282671     -0.120031
   C     -0.058355      0.098055      0.007833
   O     -1.295037      0.129794     -0.361529
   O      0.667260      1.062436      0.473031
   H     -0.000374     -2.055487     -0.504956
   H      1.539422     -1.172830     -0.793211
   H      1.064355     -1.580591      0.865199
  Li      0.000000      0.000000      3.680000
