    8
 0004.xyz Energy -0.149276
   C     -0.004000      0.029000      0.090000
   C     -0.044000      0.033000      1.602000
   O      0.951000     -0.627000      2.135000
   O     -1.011000      0.391000      2.243000
   H      0.954000      0.417000     -0.265000
   H     -0.125000     -0.989000     -0.289000
   H     -0.802000      0.654000     -0.316000
  Na      0.365605     -0.080237      5.806342
