    8
 0020.xyz Energy -0.106152
   C      0.744912     -0.477561      1.154931
   C     -0.055225      0.033796     -0.094284
   O      0.346167     -0.385596     -1.247460
   O     -1.038564      0.829871      0.174541
   H      1.551630     -1.157769      0.855582
   H      1.164230      0.384767      1.694419
   H      0.056549     -0.991269      1.842249
  Na      0.000000      0.000000      4.820000
