    8
 0022.xyz Energy -0.117327
   C      0.171165      1.243140     -0.736294
   C     -0.016805     -0.094653      0.061966
   O     -0.618254     -0.006928      1.200994
   O      0.459679     -1.148518     -0.517073
   H     -0.268344      2.090372     -0.195815
   H      1.244798      1.420180     -0.898944
   H     -0.298684      1.144987     -1.726118
  Na      0.000000      0.000000      5.140000
