    8
 0023.xyz Energy -0.0888897
   C      0.762552      0.864549      0.887632
   C     -0.054946     -0.068540     -0.073244
   O      0.536949     -0.438495     -1.159345
   O     -1.246085     -0.364680      0.334732
   H      1.764941      1.061435      0.488207
   H      0.220255      1.812645      1.019970
   H      0.839386      0.389816      1.877010
  Na      0.000000      0.000000      5.680000
