    8
 0024.xyz Energy -0.100871
   C      0.660463     -1.221185     -0.435107
   C     -0.054269      0.096535      0.028588
   O     -0.673383      0.768454     -0.883575
   O      0.060026      0.366392      1.288378
   H      0.510072     -1.395402     -1.507542
   H      1.736042     -1.146315     -0.215994
   H      0.266571     -2.070862      0.141991
  Na      0.000000      0.000000      5.840000
