    8
 0026.xyz Energy -0.133215
   C      1.034524      0.396661     -0.942997
   C     -0.080897     -0.036876      0.071954
   O     -0.514220     -1.248732     -0.030303
   O     -0.447295      0.880715      0.906660
   H      1.306546     -0.431932     -1.608222
   H      0.672471      1.249140     -1.536869
   H      1.920112      0.737287     -0.386354
  Na      0.000000      0.000000      4.480000
