    8
 0028.xyz Energy -0.108871
   C     -1.407699     -0.252205     -0.267581
   C      0.111989      0.017109      0.015725
   O      0.953875     -0.497448     -0.816908
   O      0.354123      0.731895      1.066157
   H     -1.539702     -0.849102     -1.178282
   H     -1.848580     -0.779210      0.591705
   H     -1.934462      0.708230     -0.368727
  Na      0.000000      0.000000      5.260000
