    8
 0029.xyz Energy -0.106003
   C      0.627723      0.913100     -0.942887
   C     -0.046995     -0.076431      0.070931
   O      0.035862     -1.334080     -0.208844
   O     -0.619562      0.486016      1.085217
   H      1.105310      0.369096     -1.766936
   H     -0.134375      1.599772     -1.340600
   H      1.374433      1.523094     -0.413290
  Na      0.000000      0.000000      5.580000
