    8
 0033.xyz Energy -0.112586
   C      0.959250      0.835660     -0.705929
   C     -0.079745     -0.063616      0.051723
   O     -1.317447      0.072751     -0.289329
   O      0.426435     -0.849341      0.945800
   H      0.464400      1.463120     -1.457264
   H      1.487614      1.470062      0.021292
   H      1.711235      0.194296     -1.188956
  Na      0.000000      0.000000      5.120000
