    8
 0036.xyz Energy -0.11687
   C     -0.394875     -1.350531      0.370086
   C      0.026092      0.106460     -0.032665
   O     -0.678218      0.676897     -0.952104
   O      1.045732      0.577990      0.608388
   H     -1.272312     -1.679666     -0.199880
   H      0.447328     -2.034521      0.187499
   H     -0.614316     -1.380838      1.447616
  Na      0.000000      0.000000      4.480000
