    8
 0037.xyz Energy -0.119295
   C     -0.188244      1.052707     -0.986506
   C      0.018163     -0.085778      0.073442
   O      0.629982     -1.147696     -0.332546
   O     -0.455538      0.169660      1.249586
   H      0.249754      0.776036     -1.953304
   H     -1.264790      1.245934     -1.105662
   H      0.272689      1.980903     -0.617539
  Na      0.000000      0.000000      5.200000
