    8
 0039.xyz Energy -0.102347
   C     -0.184529     -1.138924     -0.886355
   C      0.015102      0.085610      0.074326
   O      0.083739     -0.176831      1.336559
   O      0.087485      1.235562     -0.513321
   H     -0.221791     -2.079874     -0.323939
   H     -1.117562     -1.005748     -1.453980
   H      0.640345     -1.168784     -1.613565
  Na      0.000000      0.000000      5.900000
