    8
 0041.xyz Energy -0.123707
   C     -1.424827      0.288751     -0.057577
   C      0.112546     -0.020339     -0.001085
   O      0.784160      0.194785     -1.082508
   O      0.539782     -0.463510      1.136467
   H     -1.714050      0.673914     -1.043014
   H     -1.987533     -0.630304      0.164200
   H     -1.676804      1.023588      0.721310
  Na      0.000000      0.000000      4.780000
