    8
 0043.xyz Energy -0.0831455
   C      0.604289     -0.784449      1.065973
   C     -0.041885      0.062867     -0.085877
   O      0.771205      0.713352     -0.849143
   O     -1.333270      0.015648     -0.141105
   H      1.698450     -0.710857      1.044009
   H      0.225188     -0.427129      2.035039
   H      0.296652     -1.835371      0.960781
  Na      0.000000      0.000000      5.920000
