    8
 0044.xyz Energy -0.100254
   C     -1.386316     -0.364242     -0.249556
   C      0.108018      0.027575      0.025559
   O      0.467929      0.095232      1.263584
   O      0.820350      0.243529     -1.032223
   H     -1.925443     -0.547131      0.687983
   H     -1.875973      0.445966     -0.810167
   H     -1.415785     -1.264434     -0.881164
  Na      0.000000      0.000000      5.800000
