    8
 0045.xyz Energy -0.133138
   C      1.454538     -0.026939      0.020395
   C     -0.114266      0.002117      0.004507
   O     -0.704719     -0.108448      1.147293
   O     -0.646928      0.133284     -1.166826
   H      1.837168     -0.124463      1.043709
   H      1.807505     -0.869809     -0.592361
   H      1.839932      0.895811     -0.438025
  Na      0.000000      0.000000      4.500000
