    8
 0048.xyz Energy -0.111061
   C     -0.824845     -0.683640     -0.984424
   C      0.060463      0.052720      0.081525
   O     -0.475264      0.249303      1.239614
   O      1.242086      0.386241     -0.325275
   H     -1.804202     -0.949686     -0.568291
   H     -0.955907     -0.030524     -1.860066
   H     -0.303623     -1.590017     -1.326405
  Na      0.000000      0.000000      5.480000
