    8
 0049.xyz Energy -0.0850283
   C      1.225051     -0.021442      0.784611
   C     -0.095718      0.007752     -0.062125
   O     -0.558216      1.173337     -0.369252
   O     -0.580329     -1.153967     -0.359644
   H      1.586911      0.994099      0.986654
   H      1.035915     -0.546233      1.732929
   H      1.992667     -0.592215      0.241355
  Na      0.000000      0.000000      5.740000
