    8
 0050.xyz Energy -0.131109
   C     -1.431853      0.213555      0.144965
   C      0.111384     -0.022623     -0.012777
   O      0.490780     -1.239957     -0.215203
   O      0.839900      1.042018      0.080816
   H     -1.987767     -0.726099      0.039620
   H     -1.631473      0.657120      1.131822
   H     -1.768519      0.935823     -0.613408
  Na      0.000000      0.000000      3.720000
