    8
 0051.xyz Energy -0.124581
   C      0.134391      1.247432     -0.736665
   C     -0.009161     -0.095009      0.063014
   O      0.317527     -0.060288      1.311569
   O     -0.442353     -1.099222     -0.627535
   H      0.490380      2.057131     -0.088015
   H      0.837698      1.099468     -1.569702
   H     -0.838902      1.516547     -1.173039
  Na      0.000000      0.000000      5.000000
