    8
 0054.xyz Energy -0.0843191
   C      0.838493     -0.880915      0.798587
   C     -0.068405      0.064291     -0.065337
   O     -0.799886     -0.502824     -0.965413
   O      0.021087      1.321893      0.223425
   H      0.701114     -1.930537      0.511344
   H      1.891935     -0.592259      0.666591
   H      0.592799     -0.747755      1.862564
  Na      0.000000      0.000000      5.920000
