    8
 0055.xyz Energy -0.141235
   C      0.090036     -1.360607     -0.507411
   C     -0.012819      0.107181      0.037808
   O     -1.091531      0.755261     -0.250625
   O      1.008476      0.509137      0.722164
   H     -0.813579     -1.639483     -1.063104
   H      0.971094     -1.443342     -1.161151
   H      0.240743     -2.051692      0.335105
  Na      0.000000      0.000000      3.960000
