    8
 0058.xyz Energy -0.112885
   C     -0.475605      1.350231     -0.259804
   C      0.041938     -0.103732      0.023714
   O      1.165641     -0.203723      0.651498
   O     -0.724003     -1.051206     -0.410548
   H      0.212701      2.100696      0.147779
   H     -0.582061      1.491585     -1.345701
   H     -1.473375      1.474478      0.186471
  Na      0.000000      0.000000      4.760000
