    8
 0059.xyz Energy -0.100822
   C      1.183877     -0.825344     -0.184569
   C     -0.094590      0.063706      0.008709
   O     -0.809638      0.282143     -1.043817
   O     -0.290239      0.485082      1.215821
   H      1.278951     -1.159077     -1.225083
   H      2.074167     -0.247544      0.105286
   H      1.125762     -1.696197      0.485044
  Na      0.000000      0.000000      5.740000
