   13
 0001.xyz Energy 0.109565
   H      0.803711     -0.110394     -0.624842
   N     -0.000004      0.000001      0.000003
   H      0.254483      0.615209      0.777974
   H     -0.781550      0.410908     -0.518542
   H     -0.276583     -0.915731      0.365363
   N      0.592648      0.105122      4.753305
   C     -0.678398     -0.120320      4.038462
   H      0.823779      1.106180      4.800204
   H      1.375098     -0.371548      4.285932
   H      0.547481     -0.247623      5.718422
   H     -0.566767      0.273460      3.026503
   H     -1.464840      0.408013      4.580804
   H     -0.866567     -1.195551      4.022836
