   13
 0002.xyz Energy 0.110053
   H     -1.009474     -0.169637      0.027405
   N      0.000006      0.000001     -0.000000
   H      0.473176     -0.653692      0.630300
   H      0.343390     -0.137451     -0.954852
   H      0.192831      0.960766      0.297148
   N     -0.038520     -0.110804      4.897948
   C      0.044097      0.126824      3.443957
   H      0.495051     -0.946211      5.172056
   H     -1.011519     -0.252247      5.199856
   H      0.337884      0.685093      5.429725
   H     -0.368424     -0.748404      2.938597
   H      1.095821      0.268599      3.187955
   H     -0.538985      1.021707      3.218186
