   13
 0004.xyz Energy 0.127135
   H     -0.331604     -0.078406      0.965637
   N      0.000002      0.000000     -0.000005
   H      0.559275      0.851795     -0.100712
   H      0.575142     -0.815217     -0.230618
   H     -0.802838      0.041822     -0.634234
   N      0.136972      0.303000      3.877667
   C     -0.156804     -0.346842      5.169481
   H     -0.711595      0.706713      3.459710
   H      0.526514     -0.366787      3.201264
   H      0.819938      1.064146      3.987816
   H     -0.883308     -1.140716      4.986333
   H     -0.565028      0.411937      5.839831
   H      0.778550     -0.752888      5.559370
