   13
 0005.xyz Energy 0.11934
   H     -0.561714     -0.287523     -0.806457
   N      0.000003      0.000002      0.000004
   H      0.507426      0.860013     -0.226678
   H     -0.614597      0.167539      0.801719
   H      0.668843     -0.740051      0.231355
   N     -0.204485      0.516538      4.214106
   C      0.234076     -0.591282      5.084612
   H     -0.328235      0.203159      3.242397
   H      0.482279      1.282167      4.207239
   H     -1.101625      0.908401      4.529545
   H      1.185900     -0.961851      4.699518
   H     -0.532720     -1.367511      5.049198
   H      0.346722     -0.196591      6.096197
