   13
 0006.xyz Energy 0.132381
   H      0.255068     -0.976059      0.175538
   N     -0.000001      0.000005     -0.000001
   H      0.782217      0.481000     -0.453058
   H     -0.821231      0.033622     -0.610738
   H     -0.216035      0.461362      0.888271
   N     -0.318204     -0.041387      3.691388
   C      0.364236      0.047367      4.996678
   H     -1.296804     -0.338660      3.799591
   H      0.144543     -0.719635      3.071933
   H     -0.322190      0.866541      3.208097
   H      0.334998     -0.942119      5.456731
   H     -0.171492      0.778957      5.604571
   H      1.392559      0.365618      4.814903
