   13
 0008.xyz Energy 0.109759
   H      0.860957      0.169063     -0.527954
   N     -0.000005     -0.000001      0.000003
   H     -0.186366      0.798223      0.613673
   H     -0.781440     -0.119994     -0.650772
   H      0.106915     -0.847279      0.565013
   N      0.592144     -0.116371      4.730452
   C     -0.677820      0.133198      4.021727
   H      1.200967     -0.750376      4.196496
   H      0.429554     -0.545694      5.650847
   H      1.113443      0.756878      4.884078
   H     -1.180904     -0.826563      3.890003
   H     -0.438861      0.586762      3.057912
   H     -1.275890      0.808937      4.636107
