   13
 0009.xyz Energy 0.119874
   H     -0.980110     -0.262840     -0.137347
   N      0.000005      0.000001      0.000001
   H      0.602143     -0.642715     -0.522330
   H      0.147492      0.955700     -0.336803
   H      0.230401     -0.050165      0.996469
   N     -0.363033      0.513734      4.241326
   C      0.415549     -0.588073      4.838999
   H     -1.334026      0.513361      4.580310
   H     -0.393196      0.438119      3.216019
   H      0.045026      1.429210      4.472218
   H     -0.065511     -1.527097      4.558995
   H      0.409940     -0.451771      5.922120
   H      1.430891     -0.533329      4.441686
