   13
 0011.xyz Energy 0.101504
   H      0.553702      0.742459     -0.436730
   N     -0.000003     -0.000004      0.000002
   H      0.142263     -0.876626     -0.509680
   H      0.295896     -0.119026      0.973052
   H     -0.991819      0.253249     -0.026675
   N     -0.231870      0.299386      5.314438
   C      0.265432     -0.342701      4.082449
   H      0.457321      0.959830      5.697280
   H     -0.432645     -0.396366      6.044848
   H     -1.099275      0.823826      5.139823
   H      1.182040     -0.880140      4.332601
   H      0.458805      0.443870      3.350553
   H     -0.507008     -1.027738      3.727716
