   13
 0012.xyz Energy 0.130057
   H     -0.669189      0.154831     -0.759459
   N      0.000004     -0.000001      0.000004
   H     -0.479430     -0.433255      0.794307
   H      0.748561     -0.618297     -0.325449
   H      0.400008      0.896733      0.290543
   N      0.479145     -0.493708      3.793115
   C     -0.548464      0.565152      3.807880
   H      1.396525     -0.129680      4.082316
   H      0.588476     -0.896728      2.853168
   H      0.235279     -1.261528      4.432568
   H     -0.233282      1.346056      3.113303
   H     -0.616496      0.950328      4.827082
   H     -1.493345      0.117898      3.493337
