   13
 0013.xyz Energy 0.100982
   H     -0.386593      0.650887     -0.689533
   N      0.000002     -0.000004      0.000004
   H      1.017544     -0.044324     -0.105477
   H     -0.231576      0.324651      0.943147
   H     -0.399405     -0.931165     -0.148189
   N     -0.318209     -0.216074      5.350465
   C      0.364241      0.247346      4.126992
   H     -1.323066      0.001450      5.324329
   H      0.073372      0.230688      6.190077
   H     -0.224779     -1.233470      5.469187
   H      0.229304      1.328403      4.058471
   H     -0.094266     -0.260249      3.276181
   H      1.421060     -0.011583      4.215664
