   13
 0014.xyz Energy 0.1351
   H     -0.750694     -0.672578      0.180726
   N      0.000004      0.000004     -0.000001
   H     -0.118706      0.400976     -0.934673
   H     -0.035724      0.747359      0.699092
   H      0.905068     -0.475808      0.054869
   N      0.064675     -0.237467      3.537504
   C     -0.074046      0.271823      4.915459
   H     -0.835119     -0.221358      3.039659
   H      0.405602     -1.207817      3.529168
   H      0.729348      0.328725      2.993854
   H     -0.788340     -0.367614      5.437465
   H     -0.437154      1.299664      4.856652
   H      0.909256      0.229257      5.387773
