   13
 0015.xyz Energy 0.112001
   H      0.599676      0.828119      0.056314
   N     -0.000003     -0.000005     -0.000000
   H     -0.837873      0.221781     -0.545224
   H      0.511559     -0.761544     -0.454874
   H     -0.273317     -0.288294      0.943788
   N      0.469856      0.419922      4.596181
   C     -0.537830     -0.480684      4.003848
   H      1.191885      0.677090      3.910415
   H      0.944608     -0.022213      5.394308
   H      0.040765      1.291043      4.935222
   H     -0.022642     -1.381515      3.665217
   H     -1.003360      0.043418      3.166973
   H     -1.271710     -0.715338      4.777239
