   13
 0017.xyz Energy 0.124337
   H     -0.030134      0.442698      0.922862
   N      0.000000     -0.000002     -0.000005
   H     -0.392775      0.638282     -0.697718
   H      0.970893     -0.216118     -0.243333
   H     -0.547987     -0.864829      0.018259
   N      0.185105     -0.059086      3.959985
   C     -0.211884      0.067623      5.375515
   H      0.276188     -1.045398      3.683163
   H      1.089678      0.397008      3.782203
   H     -0.508080      0.374714      3.336101
   H      0.559804     -0.409241      5.982711
   H     -1.173879     -0.433522      5.498723
   H     -0.291180      1.131721      5.606125
