   13
 0018.xyz Energy 0.10383
   H      0.212437     -0.967108     -0.261029
   N     -0.000001      0.000005      0.000001
   H      0.837766      0.577002     -0.117062
   H     -0.748230      0.358938     -0.599890
   H     -0.301957      0.031095      0.977961
   N     -0.020315     -0.413114      5.169817
   C      0.023252      0.472899      3.990637
   H     -0.499795      0.037960      5.959987
   H      0.925966     -0.664546      5.484802
   H     -0.520242     -1.287884      4.963009
   H      0.563577      1.378358      4.273088
   H     -1.005694      0.702099      3.706915
   H      0.541412     -0.060301      3.191274
