   13
 0019.xyz Energy 0.112863
   H     -0.140414     -0.313833     -0.964550
   N      0.000001      0.000002      0.000005
   H      1.001141      0.005264      0.214886
   H     -0.377625      0.945473      0.109687
   H     -0.483112     -0.636929      0.639904
   N     -0.392558      0.258851      4.662264
   C      0.449348     -0.296302      3.585054
   H     -1.387082      0.255103      4.400262
   H     -0.132984      1.230488      4.877727
   H     -0.298947     -0.286045      5.529584
   H      0.306356      0.322289      2.697087
   H      0.126229     -1.323280      3.404299
   H      1.487094     -0.264889      3.922500
