   13
 0021.xyz Energy 0.110181
   H     -0.112088     -0.805538     -0.622181
   N      0.000001      0.000004      0.000003
   H     -0.624403     -0.101182      0.805214
   H      0.970079      0.048420      0.324274
   H     -0.233597      0.858239     -0.507355
   N     -0.171123     -0.008921      4.906342
   C      0.195888      0.010199      3.477245
   H      0.363510     -0.720937      5.421064
   H     -1.169741     -0.219505      5.034002
   H      0.013153      0.899196      5.352756
   H     -0.022182     -0.976031      3.063263
   H      1.261408      0.237760      3.409092
   H     -0.402372      0.781955      2.989134
