   13
 0023.xyz Energy 0.126253
   H      0.974730     -0.296016      0.104115
   N     -0.000005      0.000002     -0.000001
   H     -0.070095      1.008059      0.165498
   H     -0.322079     -0.213424     -0.948297
   H     -0.582482     -0.498642      0.678692
   N     -0.288752     -0.371275      3.897853
   C      0.330539      0.424985      4.974807
   H     -0.229039     -1.378891      4.095039
   H      0.174557     -0.204699      2.994815
   H     -1.283626     -0.136797      3.783119
   H      1.379488      0.131397      5.046209
   H     -0.202688      0.205024      5.901656
   H      0.235181      1.479192      4.707736
