   13
 0025.xyz Energy 0.131892
   H     -1.002594     -0.125019      0.166554
   N      0.000005      0.000001     -0.000001
   H      0.199195      0.992464     -0.154347
   H      0.525146     -0.330906      0.814416
   H      0.278177     -0.536549     -0.826611
   N      0.034285      0.129722      3.665188
   C     -0.039233     -0.148496      5.112451
   H      0.769010     -0.429994      3.212822
   H      0.244234      1.120195      3.484179
   H     -0.854464     -0.088979      3.195917
   H      0.928662      0.102552      5.550334
   H     -0.263426     -1.209550      5.237598
   H     -0.832950      0.472605      5.531998
