   13
 0026.xyz Energy 0.121492
   H     -0.946627      0.355335     -0.161860
   N      0.000005     -0.000002      0.000001
   H     -0.013166     -1.023809     -0.011344
   H      0.623426      0.341531     -0.737054
   H      0.336296      0.326970      0.910246
   N      0.156524      0.669021      4.175853
   C     -0.179163     -0.765825      4.098970
   H      1.064975      0.817300      4.634619
   H     -0.549527      1.190882      4.711608
   H      0.209771      1.092106      3.239860
   H     -0.220459     -1.154185      5.118311
   H      0.603497     -1.261439      3.521414
   H     -1.148452     -0.855996      3.604883
