   13
 0027.xyz Energy 0.135157
   H     -0.324766     -0.950377     -0.199687
   N      0.000002      0.000005      0.000001
   H      0.954749     -0.035903      0.368311
   H     -0.012891      0.553184     -0.861611
   H     -0.617116      0.433024      0.692972
   N     -0.004711     -0.685315      3.579202
   C      0.005393      0.784475      3.709582
   H      0.355287     -0.982738      2.662862
   H     -0.956330     -1.063530      3.675405
   H      0.579157     -1.129505      4.300112
   H     -0.628648      1.194023      2.921008
   H      1.037489      1.122499      3.598771
   H     -0.385750      1.034771      4.697576
