   13
 0028.xyz Energy 0.111965
   H     -0.392304      0.938093     -0.121015
   N      0.000002     -0.000005      0.000001
   H     -0.527010     -0.499847      0.721734
   H     -0.061831     -0.512498     -0.884350
   H      0.981115      0.074323      0.283621
   N      0.114551      0.494286      4.664687
   C     -0.131139     -0.565803      3.668079
   H     -0.692791      0.614886      5.290301
   H      0.293126      1.400305      4.211785
   H      0.930614      0.275362      5.251230
   H     -1.004431     -0.276029      3.080730
   H     -0.312812     -1.496717      4.208592
   H      0.757112     -0.644431      3.038316
