   12
 0002.xyz Energy -0.105224
   N      0.800868      0.690432     -0.660942
   C     -0.433313     -0.113971     -0.351538
   H      0.778110      1.034606     -1.635650
   H      1.651664      0.115437     -0.541588
   H      0.872054      1.507655     -0.031803
   H     -0.462311     -0.938323     -1.070686
   H     -1.290695      0.542642     -0.528499
   C     -0.499715     -0.675301      1.080197
   H      0.343996     -1.341989      1.274564
   H     -1.422875     -1.242985      1.220813
   H     -0.481046      0.133482      1.814795
  Cl      0.000000      0.000000      4.800000
