   12
 0003.xyz Energy -0.157811
   N      0.250700     -0.507628      1.111033
   C      0.167515     -0.382944     -0.386810
   H      0.668387     -1.414460      1.379776
   H     -0.689803     -0.447047      1.535890
   H      0.834481      0.247057      1.509013
   H     -0.433554     -1.225785     -0.741641
   H      1.187432     -0.487491     -0.769432
   C     -0.441942      0.935988     -0.895091
   H     -1.465400      1.055514     -0.531296
   H     -0.464694      0.945157     -1.987638
   H      0.149426      1.791134     -0.558760
  Cl      0.000000      0.000000      4.320000
