   12
 0006.xyz Energy -0.115923
   N     -0.111350     -1.187195     -0.364830
   C      0.439192      0.212053     -0.294063
   H      0.422754     -1.756362     -1.042924
   H     -1.101434     -1.176092     -0.662033
   H     -0.056066     -1.649117      0.558375
   H      0.380175      0.626866     -1.305011
   H      1.491459      0.123149     -0.007028
   C     -0.287386      1.145994      0.690420
   H     -1.339328      1.255845      0.415736
   H      0.173272      2.136935      0.680776
   H     -0.232408      0.753866      1.708911
  Cl      0.000000      0.000000      4.500000
