   12
 0007.xyz Energy -0.149334
   N      0.932782     -0.209128      0.800696
   C      0.205595     -0.129943     -0.514951
   H      1.901431     -0.543669      0.663476
   H      0.454306     -0.861385      1.444389
   H      0.973238      0.719728      1.252723
   H      0.228683     -1.133723     -0.950224
   H      0.780746      0.547777     -1.153274
   C     -1.250913      0.359376     -0.422656
   H     -1.845585     -0.309883      0.203888
   H     -1.703395      0.388011     -1.416991
   H     -1.295618      1.365311      0.001853
  Cl      0.000000      0.000000      4.240000
