   12
 0008.xyz Energy -0.117997
   N      1.163060      0.367494     -0.259171
   C      0.021896     -0.227660      0.521555
   H      2.042363      0.316603      0.282369
   H      0.976940      1.360192     -0.479690
   H      1.302066     -0.140730     -1.148622
   H     -0.047347      0.333641      1.458421
   H      0.298866     -1.262196      0.746462
   C     -1.338941     -0.202136     -0.197359
   H     -1.638771      0.824144     -0.423082
   H     -2.108629     -0.651429      0.435080
   H     -1.293792     -0.765564     -1.132571
  Cl      0.000000      0.000000      4.460000
