   12
 0009.xyz Energy -0.137143
   N      0.499007      1.104554      0.293059
   C      0.070167     -0.328736      0.459715
   H      0.961485      1.449900      1.150893
   H     -0.316255      1.710158      0.099900
   H      1.164646      1.198203     -0.492367
   H     -0.602848     -0.359474      1.322082
   H      0.972187     -0.903186      0.691934
   C     -0.631724     -0.942424     -0.765072
   H     -1.541469     -0.388146     -1.008463
   H     -0.908214     -1.979887     -0.561394
   H      0.027634     -0.929607     -1.636389
  Cl      0.000000      0.000000      4.140000
