   12
 0011.xyz Energy -0.123606
   N      1.189920      0.164919     -0.334400
   C      0.001689     -0.031748      0.568611
   H      2.060504      0.240678      0.218206
   H      1.085982      1.028722     -0.892755
   H      1.289748     -0.631308     -0.986162
   H     -0.024427      0.825379      1.248480
   H      0.192751     -0.939921      1.148504
   C     -1.350355     -0.157004     -0.156411
   H     -1.564871      0.744896     -0.734908
   H     -2.156011     -0.297317      0.568498
   H     -1.348431     -1.013724     -0.834746
  Cl      0.000000      0.000000      4.160000
