   12
 0012.xyz Energy -0.14373
   N      0.669344     -0.935639      0.481134
   C     -0.304998     -0.229000     -0.422923
   H      0.730501     -1.939114      0.239627
   H      0.373682     -0.858911      1.468765
   H      1.613843     -0.524564      0.393518
   H     -1.269243     -0.732742     -0.304403
   H      0.050175     -0.377348     -1.447327
   C     -0.471507      1.276175     -0.147079
   H     -0.834912      1.445985      0.869387
   H     -1.192280      1.710413     -0.844348
   H      0.479692      1.800061     -0.269035
  Cl      0.000000      0.000000      4.220000
