   12
 0013.xyz Energy -0.154333
   N      0.308075     -1.073877      0.553903
   C      0.009847     -0.105705     -0.559516
   H      0.546744     -2.005479      0.174187
   H     -0.510730     -1.179183      1.176146
   H      1.105722     -0.743144      1.122333
   H     -0.817353     -0.531285     -1.135878
   H      0.901814     -0.067910     -1.192386
   C     -0.358505      1.316759     -0.100955
   H     -1.253563      1.302285      0.525752
   H     -0.558261      1.952819     -0.966858
   H      0.459138      1.763879      0.469707
  Cl      0.000000      0.000000      3.840000
