   12
 0014.xyz Energy -0.149797
   N     -1.087521     -0.516796      0.324270
   C      0.390131     -0.410921      0.057186
   H     -1.334442     -1.469526      0.641074
   H     -1.629578     -0.310743     -0.531554
   H     -1.375389      0.151981      1.058169
   H      0.629525     -1.163501     -0.700366
   H      0.899062     -0.671252      0.990340
   C      0.865308      0.972730     -0.421439
   H      0.375149      1.248022     -1.358487
   H      1.944901      0.963524     -0.590722
   H      0.643447      1.738535      0.325843
  Cl      0.000000      0.000000      3.800000
