   12
 0017.xyz Energy -0.108674
   N      0.406822     -0.512097     -1.061689
   C      0.248445     -0.294491      0.419379
   H      1.051641     -1.298371     -1.248801
   H      0.788874      0.333816     -1.516866
   H     -0.504154     -0.730934     -1.498692
   H      1.248461     -0.101106      0.819556
   H     -0.126693     -1.233383      0.838081
   C     -0.695058      0.857794      0.808490
   H     -0.332842      1.807510      0.407316
   H     -0.753888      0.946816      1.896091
   H     -1.702877      0.679579      0.425540
  Cl      0.000000      0.000000      4.660000
