   12
 0019.xyz Energy -0.151685
   N      0.603363      0.258764      1.060154
   C      0.307940      0.238019     -0.415751
   H      1.474958      0.781101      1.251238
   H      0.716752     -0.702210      1.424010
   H     -0.165684      0.712953      1.580747
   H      1.171249     -0.223560     -0.904846
   H      0.232774      1.281319     -0.737363
   C     -0.973869     -0.517472     -0.810170
   H     -0.915294     -1.565325     -0.505745
   H     -1.113756     -0.483976     -1.893485
   H     -1.850305     -0.066193     -0.338664
  Cl      0.000000      0.000000      4.440000
