   12
 0020.xyz Energy -0.147812
   N     -0.790065      0.636427      0.725044
   C     -0.191874      0.064411     -0.532320
   H     -1.635385      1.190945      0.508313
   H     -0.113239      1.253819      1.204056
   H     -1.058117     -0.118273      1.378736
   H      0.036844      0.910670     -1.187380
   H     -0.968156     -0.548311     -1.000847
   C      1.076233     -0.782009     -0.320557
   H      1.868218     -0.185308      0.138582
   H      1.443758     -1.157839     -1.278648
   H      0.867026     -1.638768      0.324662
  Cl      0.000000      0.000000      4.200000
