   12
 0021.xyz Energy -0.113712
   N     -0.179022     -0.678954     -1.030487
   C     -0.040561     -0.365058      0.435220
   H     -0.366560     -1.685756     -1.172637
   H      0.687497     -0.437113     -1.539778
   H     -0.959061     -0.143506     -1.447109
   H      0.776086     -0.986024      0.816085
   H     -0.975017     -0.673732      0.913834
   C      0.241148      1.113349      0.758205
   H      1.176327      1.439488      0.296498
   H      0.326440      1.254258      1.838544
   H     -0.568170      1.750694      0.393642
  Cl      0.000000      0.000000      4.440000
