   12
 0024.xyz Energy -0.127934
   N      0.829337     -0.863349     -0.348939
   C     -0.441618     -0.287523      0.215947
   H      0.815722     -1.896090     -0.301092
   H      1.650628     -0.526606      0.180970
   H      0.947689     -0.587741     -1.338268
   H     -0.518986     -0.643341      1.247924
   H     -1.265814     -0.708450     -0.368075
   C     -0.524166      1.249353      0.192197
   H      0.286014      1.690045      0.778284
   H     -1.473885      1.583138      0.617502
   H     -0.457774      1.625231     -0.831727
  Cl      0.000000      0.000000      4.020000
