   12
 0025.xyz Energy -0.121232
   N      0.946276     -0.556144     -0.591774
   C      0.168559      0.059092      0.540763
   H      1.872820     -0.879225     -0.265945
   H      1.092522      0.130582     -1.350549
   H      0.440884     -1.368343     -0.983755
   H      0.772299      0.886224      0.926666
   H      0.079533     -0.708117      1.316021
   C     -1.231309      0.574767      0.161535
   H     -1.164037      1.349646     -0.606018
   H     -1.725829      1.003239      1.036819
   H     -1.854189     -0.238744     -0.218377
  Cl      0.000000      0.000000      4.180000
