   12
 0026.xyz Energy -0.116844
   N      1.009419     -0.649979     -0.336945
   C      0.129855      0.240051      0.499842
   H      1.927813     -0.788000      0.117511
   H      1.170153     -0.233212     -1.269248
   H      0.571889     -1.577351     -0.468426
   H      0.665048      1.186316      0.625232
   H      0.029104     -0.243614      1.476303
   C     -1.266435      0.510719     -0.088785
   H     -1.188248      1.002607     -1.061427
   H     -1.837673      1.161423      0.577948
   H     -1.821775     -0.422065     -0.213777
  Cl      0.000000      0.000000      4.480000
