   12
 0027.xyz Energy -0.10241
   N      0.284984     -0.009854     -1.213927
   C      0.491825      0.085607      0.274059
   H      1.181958      0.102794     -1.715700
   H     -0.362492      0.726620     -1.541188
   H     -0.114502     -0.928464     -1.469476
   H      0.943840      1.063040      0.468678
   H      1.207250     -0.697175      0.544208
   C     -0.786174     -0.069412      1.117894
   H     -1.511250      0.709550      0.869737
   H     -0.548574      0.011639      2.181491
   H     -1.249001     -1.044060      0.944795
  Cl      0.000000      0.000000      5.020000
