   12
 0028.xyz Energy -0.143326
   N     -0.676483     -0.467342      0.937493
   C     -0.295158      0.445309     -0.197257
   H     -1.583618     -0.184529      1.345110
   H      0.036441     -0.438368      1.685569
   H     -0.760854     -1.443896      0.608917
   H     -0.255803      1.459530      0.211860
   H     -1.103715      0.389596     -0.932574
   C      1.044747      0.110408     -0.876862
   H      1.867951      0.169502     -0.160661
   H      1.244801      0.817147     -1.686034
   H      1.023301     -0.896599     -1.300641
  Cl      0.000000      0.000000      4.620000
