   12
 0030.xyz Energy -0.146117
   N      0.002907      0.160285      1.236621
   C     -0.054099     -0.560731     -0.083563
   H     -0.070668     -0.508336      2.021835
   H     -0.773071      0.838639      1.316693
   H      0.893959      0.675362      1.333881
   H     -1.002179     -1.106849     -0.105216
   H      0.770709     -1.279928     -0.086364
   C      0.047615      0.346353     -1.323006
   H     -0.773495      1.067068     -1.344193
   H     -0.001118     -0.253635     -2.235092
   H      0.992729      0.894866     -1.325295
  Cl      0.000000      0.000000      4.880000
