   12
 0032.xyz Energy -0.105075
   N     -0.535253     -0.124951     -1.119295
   C     -0.426837     -0.001212      0.377011
   H     -1.523781     -0.217722     -1.407802
   H     -0.021555     -0.956615     -1.455699
   H     -0.140213      0.709273     -1.584862
   H     -0.889878     -0.896594      0.802985
   H     -1.015906      0.874981      0.664837
   C      1.008651      0.142738      0.913686
   H      1.612054     -0.727674      0.644635
   H      0.997804      0.227068      2.003197
   H      1.486627      1.037212      0.506789
  Cl      0.000000      0.000000      4.840000
