   12
 0033.xyz Energy -0.142472
   N     -0.183692      0.614785      1.069218
   C      0.154144      0.394193     -0.381025
   H     -0.101862      1.615615      1.315534
   H      0.456084      0.078984      1.679401
   H     -1.151410      0.311290      1.269593
   H      1.173235      0.764710     -0.528475
   H     -0.536500      1.011661     -0.963523
   C      0.063090     -1.068061     -0.853134
   H      0.752874     -1.700939     -0.289428
   H      0.322125     -1.139720     -1.912392
   H     -0.950484     -1.455028     -0.722618
  Cl      0.000000      0.000000      4.720000
