   12
 0034.xyz Energy -0.107496
   N      0.190618      1.021982     -0.688584
   C     -0.552630     -0.124944     -0.057600
   H     -0.444533      1.592669     -1.271618
   H      0.956255      0.674855     -1.290265
   H      0.601165      1.634572      0.035932
   H     -0.985437     -0.709618     -0.875161
   H     -1.362498      0.311538      0.534985
   C      0.304346     -1.040767      0.834716
   H      1.114676     -1.494716      0.259045
   H     -0.309195     -1.843142      1.251877
   H      0.739259     -0.477294      1.663848
  Cl      0.000000      0.000000      4.680000
