   12
 0036.xyz Energy -0.103888
   N      0.514511      0.455317     -1.040622
   C      0.336985      0.169574      0.426631
   H      1.362071      1.025019     -1.202213
   H     -0.298577      0.973704     -1.413290
   H      0.610082     -0.424133     -1.575572
   H      0.275524      1.138030      0.932482
   H      1.241766     -0.348497      0.759101
   C     -0.900544     -0.675753      0.777786
   H     -1.816885     -0.171073      0.462003
   H     -0.954038     -0.836612      1.857380
   H     -0.854379     -1.652027      0.289043
  Cl      0.000000      0.000000      4.860000
