   12
 0041.xyz Energy -0.186588
   N      0.745000     -0.011000      1.065000
   C      0.345000      0.321000     -0.302000
   H      1.535000      0.525000      1.432000
   H      0.874000     -1.003000      1.278000
   H     -0.014000      0.271000      1.756000
   H      1.198000      0.098000     -0.949000
   H      0.138000      1.394000     -0.332000
   C     -0.868000     -0.494000     -0.694000
   H     -0.662000     -1.568000     -0.630000
   H     -1.157000     -0.267000     -1.725000
   H     -1.723000     -0.272000     -0.049000
  Cl     -0.801500      0.676900      3.147400
