   15
 0001.xyz Energy -0.144112
   N     -0.256862     -0.964724      0.747168
   C      0.396361      0.305469      0.271873
   H      0.110940     -1.240620      1.673252
   H     -0.077325     -1.738217      0.085205
   H     -1.279878     -0.841039      0.830110
   H      1.473323      0.114150      0.238404
   H      0.193987      1.067613      1.030649
   C     -0.082072      0.805831     -1.102939
   H      0.119521      0.062023     -1.877671
   H      0.438931      1.728201     -1.371361
   H     -1.155159      1.011708     -1.088466
   O      0.329938      1.103152      4.239966
   O     -0.543820     -1.016592      4.252630
   C      0.209287     -0.084707      4.641661
   H      0.901188     -0.364633      5.506659
