   15
 0002.xyz Energy -0.107059
   N      0.997704     -0.722965     -0.191936
   C     -0.113779     -0.037362      0.556765
   H      1.566206     -1.302883      0.448009
   H      1.620791     -0.028953     -0.637837
   H      0.616409     -1.337090     -0.930992
   H      0.356816      0.566367      1.338828
   H     -0.710811     -0.825059      1.026495
   C     -1.023722      0.854683     -0.306732
   H     -0.447622      1.654634     -0.778206
   H     -1.800586      1.311902      0.311081
   H     -1.511111      0.268420     -1.089585
   O      0.148688      0.022945      4.149879
   O      0.204102     -0.008363      6.441795
   C     -0.345214     -0.014269      5.308154
   H     -1.486424     -0.061439      5.335002
