   15
 0003.xyz Energy -0.127428
   N     -0.337494     -0.162152      1.189426
   C     -0.416485     -0.231025     -0.312245
   H     -1.167175     -0.604205      1.619833
   H     -0.293140      0.820102      1.508688
   H      0.504731     -0.652547      1.534257
   H     -1.341516      0.275658     -0.604066
   H     -0.492770     -1.290323     -0.576116
   C      0.774726      0.401380     -1.054166
   H      0.863088      1.463119     -0.811261
   H      0.639139      0.308450     -2.134556
   H      1.708768     -0.096880     -0.783217
   O     -0.594282     -0.742683      4.636174
   O      0.309659      0.942268      5.901387
   C      0.278513     -0.195294      5.361102
   H      1.199179     -0.840976      5.563033
