   15
 0004.xyz Energy -0.0897809
   N     -0.571849      0.113731     -1.102264
   C      0.241929      0.505354      0.102060
   H     -0.650078      0.904664     -1.763576
   H     -1.526209     -0.168703     -0.822716
   H     -0.132242     -0.679488     -1.598538
   H     -0.259921      1.364704      0.557290
   H      1.222078      0.821097     -0.268310
   C      0.420336     -0.604785      1.153311
   H     -0.547802     -0.928359      1.543323
   H      1.020716     -0.239446      1.990169
   H      0.928477     -1.470100      0.720721
   O     -0.745968      0.473361      4.768419
   O      0.444814     -0.548880      6.439943
   C      0.294691      0.073894      5.355258
   H      1.268823      0.318221      4.810577
