   15
 0005.xyz Energy -0.133044
   N     -0.812931     -0.487187      0.810385
   C      0.060524     -0.388842     -0.411664
   H     -1.321211     -1.387446      0.824993
   H     -1.509283      0.276756      0.824686
   H     -0.245109     -0.423256      1.671912
   H     -0.596847     -0.495983     -1.279970
   H      0.747184     -1.240278     -0.378276
   C      0.864428      0.918400     -0.530922
   H      0.195988      1.781725     -0.575176
   H      1.469395      0.908011     -1.440960
   H      1.534872      1.040351      0.323329
   O     -0.187734     -0.074546      6.402196
   O     -0.111849     -0.112392      4.110965
   C      0.293151      0.182923      5.266685
   H      1.262243      0.787633      5.288893
