   15
 0006.xyz Energy -0.0906859
   N      0.230867     -0.808003     -0.921284
   C     -0.506476     -0.148944      0.213602
   H     -0.310281     -1.606156     -1.294297
   H      1.149527     -1.160876     -0.604642
   H      0.390155     -0.137808     -1.692130
   H     -0.668672     -0.918286      0.974770
   H     -1.475701      0.169524     -0.182304
   C      0.215271      1.056099      0.843141
   H      1.182942      0.757166      1.253447
   H     -0.385297      1.474140      1.654819
   H      0.379164      1.840874      0.100592
   O      1.042054     -0.474320      4.974107
   O     -1.004614      0.304590      5.653355
   C     -0.036642      0.166088      4.859143
   H     -0.157677      0.715105      3.864539
