   15
 0007.xyz Energy -0.121169
   N     -0.781297     -0.336444      0.911763
   C     -0.123591     -0.336818     -0.442276
   H     -1.524440     -1.053857      0.957437
   H     -1.208474      0.583713      1.110634
   H     -0.090778     -0.539507      1.653846
   H     -0.912327     -0.149095     -1.177276
   H      0.276105     -1.343444     -0.598825
   C      1.001951      0.698554     -0.617000
   H      0.621213      1.712750     -0.473669
   H      1.424121      0.631318     -1.622741
   H      1.805156      0.523010      0.102831
   O     -0.405416      0.232977      6.641496
   O      0.224861      0.061219      4.443728
   C      0.176680     -0.287879      5.653164
   H      0.760717     -1.239540      5.895132
