   15
 0009.xyz Energy -0.10227
   N      0.547970      0.913983     -0.647530
   C     -0.450404      0.238508      0.254125
   H      0.316845      1.915016     -0.763897
   H      0.553139      0.473222     -1.582635
   H      1.501193      0.846684     -0.253100
   H     -1.434483      0.375441     -0.204579
   H     -0.425633      0.772765      1.208857
   C     -0.197000     -1.260595      0.494637
   H     -0.226833     -1.814578     -0.446805
   H     -0.962920     -1.671547      1.157016
   H      0.778420     -1.418780      0.961160
   O     -1.005330     -0.247829      4.257213
   O      0.829603      0.544051      5.380991
   C      0.171958     -0.289858      4.703479
   H      0.740330     -1.248108      4.450462
