   15
 0010.xyz Energy -0.144709
   N      0.150992      0.545093      1.111308
   C      0.014827      0.421451     -0.382737
   H      0.281839      1.533259      1.385966
   H      0.965021      0.005494      1.450290
   H     -0.694588      0.187410      1.586487
   H      0.924259      0.845347     -0.819562
   H     -0.840640      1.038656     -0.673932
   C     -0.185076     -1.014734     -0.899241
   H      0.663978     -1.646297     -0.626596
   H     -0.275143     -1.015257     -1.988346
   H     -1.094261     -1.453840     -0.481294
   O      0.008901     -0.254410      3.908360
   O     -0.187338     -0.050155      6.183596
   C      0.174605      0.298026      5.028307
   H      0.751824      1.283227      4.989547
