   15
 0011.xyz Energy -0.138558
   N      0.270169      0.619455      1.047958
   C      0.329515      0.228376     -0.404466
   H      0.928864      1.391439      1.245924
   H      0.519959     -0.180895      1.652742
   H     -0.681043      0.933403      1.303631
   H      1.364463     -0.060006     -0.612526
   H      0.087048      1.125066     -0.983013
   C     -0.616508     -0.917225     -0.806963
   H     -0.384776     -1.826196     -0.246452
   H     -0.511586     -1.136973     -1.872310
   H     -1.657480     -0.645637     -0.615317
   O     -0.813847      0.706169      5.429410
   O      0.761418     -0.504755      4.285236
   C      0.051307     -0.197092      5.279223
   H      0.220843     -0.848580      6.202330
