   15
 0012.xyz Energy -0.0928626
   N     -0.500312     -0.270295     -1.109756
   C     -0.413584     -0.086632      0.381801
   H     -1.444799     -0.588789     -1.384594
   H      0.184215     -0.974808     -1.431939
   H     -0.304310      0.618657     -1.599742
   H     -0.662437     -1.051382      0.834459
   H     -1.181805      0.643190      0.655218
   C      0.956573      0.387924      0.898364
   H      1.737583     -0.332578      0.643412
   H      0.933494      0.495997      1.985585
   H      1.220297      1.355618      0.464627
   O     -0.778168      0.039306      6.619257
   O      0.503817     -0.183596      4.731465
   C      0.268463      0.141190      5.925638
   H      1.155888      0.607946      6.473290
