   15
 0014.xyz Energy -0.116888
   N     -0.443873      0.244716      1.139308
   C     -0.423819      0.120655     -0.360761
   H     -1.361522      0.592213      1.465182
   H      0.283907      0.904443      1.461512
   H     -0.269357     -0.671857      1.584478
   H     -0.646202      1.113615     -0.763435
   H     -1.234386     -0.562743     -0.631883
   C      0.902239     -0.390970     -0.951673
   H      1.724430      0.283349     -0.699885
   H      0.831882     -0.451881     -2.040526
   H      1.138593     -1.386717     -0.568614
   O      0.399699     -0.898334      4.784654
   O     -0.605172      0.644873      6.150553
   C      0.201058      0.248023      5.267700
   H      0.865763      1.067863      4.830281
