   15
 0019.xyz Energy -0.0893431
   N      0.510383     -1.112449     -0.238533
   C      0.423846      0.326403      0.195305
   H      1.476548     -1.466881     -0.138872
   H      0.230159     -1.213470     -1.228477
   H     -0.111736     -1.705668      0.335746
   H      1.126601      0.887725     -0.428092
   H      0.762835      0.363546      1.235145
   C     -0.977635      0.953590      0.086428
   H     -1.331336      0.934828     -0.947324
   H     -0.952711      1.993986      0.419917
   H     -1.693855      0.412426      0.709550
   O      0.874172      0.601531      5.988399
   O     -0.968448     -0.625243      5.391149
   C      0.092247      0.023199      5.187742
   H      0.397281      0.099949      4.089394
