   15
 0021.xyz Energy -0.116988
   N      1.067374      0.637080      0.098863
   C     -0.282738      0.094891      0.485164
   H      1.450104      1.234777      0.850730
   H      1.000679      1.205022     -0.762364
   H      1.735378     -0.133048     -0.072633
   H     -0.925882      0.958100      0.682154
   H     -0.143868     -0.464727      1.415273
   C     -0.943621     -0.811452     -0.568944
   H     -1.099887     -0.268076     -1.504050
   H     -1.915099     -1.161012     -0.210752
   H     -0.320642     -1.685530     -0.773873
   O      0.633615     -0.627440      5.541798
   O     -0.678991      0.309211      3.911865
   C      0.044397      0.311398      4.943190
   H      0.191228      1.340771      5.416621
