   15
 0025.xyz Energy -0.149947
   N     -0.788932      0.861817      0.435648
   C      0.515000      0.242977      0.008100
   H     -0.643084      1.831061      0.764771
   H     -1.215615      0.320268      1.205963
   H     -1.458060      0.885806     -0.352026
   H      1.181891      0.279418      0.874991
   H      0.923281      0.880986     -0.781718
   C      0.409284     -1.205678     -0.501398
   H      0.011695     -1.862031      0.276564
   H      1.395518     -1.577255     -0.790422
   H     -0.246189     -1.262765     -1.373870
   O     -0.289104      0.745825      4.819987
   O     -0.060370     -0.740444      3.089201
   C      0.341970     -0.005270      4.029716
   H      1.472442     -0.022621      4.194148
