   15
 0027.xyz Energy -0.104646
   N      0.276158      0.500756     -1.108112
   C      0.222278      0.351736      0.388848
   H      0.789137      1.358843     -1.371870
   H     -0.676855      0.559929     -1.504321
   H      0.755883     -0.307249     -1.539076
   H     -0.265540      1.250291      0.778979
   H      1.258050      0.327962      0.741226
   C     -0.522366     -0.898807      0.889861
   H     -1.562863     -0.889933      0.556112
   H     -0.514452     -0.930718      1.982189
   H     -0.045083     -1.808883      0.518278
   O      1.040888     -0.419373      4.326584
   O     -1.123285      0.076232      4.899005
   C      0.080622      0.335774      4.634103
   H      0.347241      1.445751      4.680697
