   15
 0028.xyz Energy -0.119993
   N      0.774861     -0.055365      0.975426
   C     -0.164849      0.543900     -0.036416
   H      1.109206      0.666203      1.636171
   H      1.597983     -0.471608      0.508597
   H      0.302339     -0.796752      1.519306
   H      0.386916      1.337411     -0.549706
   H     -0.990506      0.991125      0.525581
   C     -0.723034     -0.449419     -1.071362
   H      0.086043     -0.901071     -1.650591
   H     -1.393575      0.064466     -1.764586
   H     -1.286069     -1.246261     -0.579278
   O     -0.348709     -0.473210      4.500056
   O      0.289738      0.144140      6.613867
   C      0.057707      0.322005      5.388530
   H      0.248443      1.386459      5.019932
