   15
 0029.xyz Energy -0.08708
   N      0.565019     -0.594398     -0.939349
   C      0.418042      0.193684      0.334748
   H      1.562932     -0.756830     -1.155711
   H      0.140963     -0.087210     -1.734117
   H      0.099050     -1.513519     -0.856717
   H      0.958351      1.134147      0.189267
   H      0.913635     -0.383104      1.121681
   C     -1.034104      0.491384      0.749496
   H     -1.544863      1.075539     -0.019911
   H     -1.051214      1.063736      1.680293
   H     -1.589531     -0.436105      0.908795
   O     -1.137751     -0.188766      5.316294
   O      1.049193      0.168474      5.905010
   C      0.086663      0.019857      5.106027
   H      0.373049      0.085485      4.001951
