   15
 0031.xyz Energy -0.107999
   N     -0.443651      0.301133     -1.125799
   C     -0.291736      0.317842      0.371746
   H     -1.175999      0.966203     -1.426427
   H     -0.708967     -0.641884     -1.456018
   H      0.442752      0.567456     -1.586341
   H     -1.268816      0.060173      0.791854
   H     -0.043916      1.346111      0.652474
   C      0.777573     -0.640662      0.926016
   H      0.543527     -1.675454      0.664239
   H      0.823412     -0.566061      2.015326
   H      1.763888     -0.394465      0.525166
   O      0.118510      0.865315      4.136718
   O     -0.181263     -1.046358      5.366586
   C      0.061404      0.177150      5.190328
   H      0.264407      0.762861      6.150036
