   15
 0033.xyz Energy -0.122899
   N      0.529788     -0.167799      1.116288
   C      0.354870      0.337260     -0.290950
   H      1.413453      0.182333      1.523195
   H      0.553710     -1.201164      1.133687
   H     -0.249651      0.147735      1.717662
   H      1.225056     -0.003936     -0.860099
   H      0.370605      1.430213     -0.238348
   C     -0.934668     -0.127421     -0.991329
   H     -0.965787     -1.217403     -1.062529
   H     -0.983504      0.282354     -2.003239
   H     -1.817115      0.211198     -0.442936
   O      0.735827      0.775452      4.729837
   O     -0.758484     -0.527886      5.881044
   C      0.022166     -0.242253      4.934510
   H      0.095513     -1.043030      4.122918
