   15
 0035.xyz Energy -0.118715
   N      0.982261     -0.764979     -0.070013
   C      0.043589      0.349693     -0.447374
   H      1.760071     -0.833167     -0.747797
   H      0.486198     -1.671864     -0.055860
   H      1.385088     -0.602121      0.868041
   H     -0.317950      0.130884     -1.456820
   H      0.638352      1.267905     -0.473909
   C     -1.154447      0.537773      0.500624
   H     -1.767518     -0.366165      0.534403
   H     -1.782266      1.363445      0.156574
   H     -0.814771      0.766383      1.513772
   O      0.235255      0.587831      3.728134
   O      0.036719     -0.395767      5.789699
   C     -0.266134     -0.187942      4.584703
   H     -1.145910     -0.809193      4.203459
