   15
 0036.xyz Energy -0.0984328
   N     -0.100704      0.528589     -1.124893
   C      0.348400     -0.445255     -0.068516
   H      0.313838      0.290427     -2.041660
   H      0.186917      1.491146     -0.881012
   H     -1.129779      0.513557     -1.222446
   H      1.441511     -0.401085     -0.041549
   H      0.040893     -1.440115     -0.405048
   C     -0.213909     -0.179841      1.339580
   H      0.089896      0.806521      1.698595
   H      0.159103     -0.928829      2.042531
   H     -1.305579     -0.228385      1.336415
   O      0.465569      1.018223      5.503118
   O     -0.183264     -1.022885      4.684691
   C     -0.276245      0.004556      5.407632
   H     -1.189422      0.019713      6.094060
