   15
 0037.xyz Energy -0.12176
   N      0.348025     -1.194776      0.079494
   C     -0.472258      0.003107     -0.318264
   H     -0.059604     -2.062164     -0.308457
   H      0.384695     -1.287627      1.108451
   H      1.316348     -1.108037     -0.272025
   H     -1.486193     -0.169386      0.055570
   H     -0.494847      0.021117     -1.412213
   C      0.050215      1.351336      0.209626
   H      0.071912      1.357586      1.302141
   H     -0.599217      2.164631     -0.123617
   H      1.059723      1.547287     -0.159981
   O      0.145236     -0.058697      3.790707
   O      0.029994     -0.247515      6.072811
   C     -0.171468      0.299636      4.956135
   H     -0.738299      1.290178      5.009367
