   15
 0038.xyz Energy -0.120337
   N     -1.183411     -0.338011      0.200546
   C     -0.011125      0.563797     -0.079612
   H     -2.062466      0.205207      0.235245
   H     -1.065756     -0.819672      1.107673
   H     -1.276872     -1.056214     -0.537144
   H      0.008504      1.313985      0.716882
   H     -0.216481      1.061792     -1.032182
   C      1.351863     -0.147781     -0.152315
   H      1.580613     -0.644545      0.793729
   H      2.144834      0.575307     -0.358720
   H      1.356400     -0.896025     -0.948695
   O     -0.293052     -0.189526      6.066171
   O      0.191644     -0.147611      3.825581
   C      0.099231      0.329898      4.987635
   H      0.427247      1.420469      5.079097
