   15
 0039.xyz Energy -0.0806597
   N     -0.134319     -0.247514     -1.214754
   C      0.406114      0.397866      0.033211
   H      0.336692      0.129218     -2.054546
   H     -1.148792     -0.071604     -1.307588
   H      0.015765     -1.270108     -1.192095
   H      0.244214      1.475034     -0.071996
   H      1.482273      0.200005      0.050307
   C     -0.230205     -0.094085      1.345633
   H     -1.305046      0.102801      1.352800
   H      0.217104      0.421896      2.198827
   H     -0.071819     -1.167587      1.474546
   O      0.190077     -0.268311      5.407663
   O     -0.487324      0.088426      7.568866
   C      0.290862      0.176023      6.582114
   H      1.252425      0.757901      6.787351
