   15
 0042.xyz Energy -0.212554
   N      0.265000      0.661000      0.433000
   C     -0.578000     -0.505000      0.646000
   H     -0.268000      1.563000      0.554000
   H      0.795000      0.742000     -0.431000
   H      0.941000      0.817000      1.228000
   H     -1.306000     -0.535000     -0.169000
   H     -1.100000     -0.366000      1.597000
   C      0.283000     -1.749000      0.667000
   H      0.826000     -1.870000     -0.277000
   H     -0.339000     -2.637000      0.817000
   H      1.016000     -1.708000      1.479000
   O      1.383000      1.835000      2.344000
   O     -0.324000      2.898000      1.403000
   C      0.604000      2.831000      2.261000
   H      0.743000      3.685000      2.975000
