   15
 0043.xyz Energy -0.210404
   N      0.265000      0.661000      0.433000
   C     -0.578000     -0.505000      0.646000
   H     -0.268000      1.563000      0.554000
   H      0.795000      0.742000     -0.431000
   H      0.941000      0.817000      1.228000
   H     -1.306000     -0.535000     -0.169000
   H     -1.100000     -0.366000      1.597000
   C      0.283000     -1.749000      0.667000
   H      0.826000     -1.870000     -0.277000
   H     -0.339000     -2.637000      0.817000
   H      1.016000     -1.708000      1.479000
   O      1.365320      1.794280      2.299360
   O     -0.341680      2.857280      1.358360
   C      0.586320      2.790280      2.216360
   H      0.725320      3.644280      2.930360
