   12
 0001.xyz Energy 0.109963
   N     -0.206958     -1.227585      0.071658
   C     -0.212954      0.164116     -0.502041
   H     -0.656216     -1.893370     -0.579437
   H     -0.721340     -1.255943      0.967943
   H      0.760712     -1.548005      0.243949
   H     -1.259226      0.424975     -0.688692
   H      0.317000      0.113733     -1.458164
   C      0.435089      1.236914      0.391554
   H     -0.085895      1.309840      1.349342
   H      0.389497      2.213330     -0.097112
   H      1.484453      0.999625      0.582967
  Na      0.000000      0.000000      4.500000
