   12
 0002.xyz Energy 0.110979
   N      0.080457      0.698775      1.029646
   C      0.520465      0.003943     -0.231147
   H      0.868288      1.214227      1.457033
   H     -0.270425      0.014778      1.720840
   H     -0.676468      1.374023      0.830040
   H      1.339240     -0.666951      0.046484
   H      0.906995      0.778847     -0.900236
   C     -0.581301     -0.795794     -0.949407
   H     -0.974926     -1.582067     -0.300611
   H     -0.180113     -1.265859     -1.850711
   H     -1.405733     -0.141674     -1.243602
  Na      0.000000      0.000000      5.420000
