   12
 0003.xyz Energy 0.103128
   N      0.971632     -0.406717      0.667416
   C      0.024896     -0.278880     -0.495918
   H      1.715500     -1.094101      0.459589
   H      0.469584     -0.720891      1.514742
   H      1.420235      0.501163      0.875376
   H     -0.386337     -1.276099     -0.680340
   H      0.625024      0.023604     -1.359578
   C     -1.124796      0.723600     -0.289498
   H     -1.742750      0.434172      0.564003
   H     -1.761760      0.755672     -1.176916
   H     -0.735145      1.729052     -0.112440
  Na      0.000000      0.000000      5.420000
