   12
 0005.xyz Energy 0.0845389
   N     -0.357639     -1.167029     -0.255084
   C     -0.438164      0.240266      0.273154
   H     -1.232472     -1.681903     -0.058607
   H      0.424300     -1.679242      0.186422
   H     -0.206784     -1.165737     -1.277815
   H     -0.629830      0.164401      1.347900
   H     -1.300727      0.709814     -0.209620
   C      0.818005      1.096550      0.031940
   H      1.690440      0.649225      0.514493
   H      0.676554      2.098897      0.443710
   H      1.022215      1.192409     -1.037275
  Na      0.000000      0.000000      5.880000
