   12
 0006.xyz Energy 0.0850118
   N     -0.869315     -0.885241      0.124789
   C      0.473439     -0.213551      0.233625
   H     -0.840354     -1.830282      0.543223
   H     -1.152110     -0.979210     -0.865117
   H     -1.593825     -0.336388      0.617317
   H      1.193123     -0.860137     -0.277795
   H      0.722600     -0.176683      1.298576
   C      0.539538      1.204494     -0.361478
   H      0.302663      1.188544     -1.428125
   H      1.543819      1.618193     -0.240920
   H     -0.166325      1.869442      0.142221
  Na      0.000000      0.000000      6.100000
