   12
 0007.xyz Energy 0.124704
   N      1.064740     -0.608299      0.226345
   C      0.081140      0.277297     -0.490766
   H      1.955318     -0.663577     -0.296001
   H      0.689217     -1.566289      0.326124
   H      1.267083     -0.240323      1.171009
   H     -0.061076     -0.150259     -1.488032
   H      0.553826      1.259376     -0.588995
   C     -1.283290      0.428347      0.205569
   H     -1.776905     -0.541442      0.305339
   H     -1.934288      1.084410     -0.377564
   H     -1.164279      0.862730      1.201189
  Na      0.000000      0.000000      4.020000
