   12
 0009.xyz Energy 0.110876
   N     -0.424659     -1.079345      0.457832
   C      0.304095      0.237245      0.419010
   H     -0.308558     -1.534458      1.378930
   H     -0.060671     -1.720376     -0.266951
   H     -1.435661     -0.942854      0.290550
   H      1.355481      0.023480      0.634562
   H     -0.107223      0.849705      1.227262
   C      0.195013      1.000000     -0.913533
   H      0.609404      0.408552     -1.733636
   H      0.748955      1.940318     -0.856857
   H     -0.847929      1.231497     -1.143299
  Na      0.000000      0.000000      4.840000
