   12
 0010.xyz Energy 0.0803766
   N      0.323553      0.432793     -1.123804
   C      0.363617      0.237656      0.368281
   H      1.069101      1.081448     -1.427835
   H     -0.586183      0.826778     -1.416850
   H      0.459160     -0.467162     -1.614140
   H      0.247189      1.227523      0.820143
   H      1.358690     -0.148581      0.609550
   C     -0.709177     -0.714337      0.927019
   H     -1.711955     -0.341447      0.704560
   H     -0.609748     -0.800237      2.011914
   H     -0.604762     -1.712423      0.494545
  Na      0.000000      0.000000      5.880000
