   12
 0012.xyz Energy 0.0945801
   N      0.693654     -0.972082      0.358933
   C     -0.121435      0.288043      0.476039
   H      1.029563     -1.277861      1.287746
   H      1.516705     -0.820236     -0.247901
   H      0.128836     -1.736562     -0.047624
   H      0.523718      1.040257      0.940284
   H     -0.951854      0.065121      1.152996
   C     -0.671867      0.830616     -0.855128
   H      0.143027      1.068622     -1.543170
   H     -1.249323      1.742029     -0.681539
   H     -1.326886      0.096988     -1.331416
  Na      0.000000      0.000000      5.640000
