   12
 0013.xyz Energy 0.0679606
   N     -0.137648     -0.177835     -1.226523
   C      0.561693      0.005690      0.093795
   H      0.548827     -0.299712     -1.990020
   H     -0.723432      0.644784     -1.447597
   H     -0.747344     -1.012416     -1.204576
   H      1.209949      0.881171     -0.010447
   H      1.183966     -0.881292      0.247419
   C     -0.372913      0.196249      1.301920
   H     -0.997534      1.083492      1.172499
   H      0.212490      0.321247      2.216217
   H     -1.023642     -0.672339      1.429273
  Na      0.000000      0.000000      7.060000
