   12
 0015.xyz Energy 0.100973
   N      0.566363     -1.101425     -0.145008
   C     -0.433586      0.001220     -0.369229
   H      0.372221     -1.903316     -0.768152
   H      0.528934     -1.435929      0.832451
   H      1.526377     -0.769077     -0.336464
   H     -1.423372     -0.426164     -0.181511
   H     -0.362006      0.282568     -1.424350
   C     -0.233685      1.247290      0.512085
   H     -0.310751      0.989305      1.571143
   H     -0.997332      1.995789      0.286574
   H      0.746815      1.695287      0.333122
  Na      0.000000      0.000000      4.840000
