   12
 0020.xyz Energy 0.0784955
   N     -1.051014     -0.404056     -0.535761
   C      0.140739     -0.396469      0.383840
   H     -1.620751     -1.254261     -0.388861
   H     -0.750114     -0.384175     -1.524590
   H     -1.650984      0.420069     -0.363742
   H      0.710305     -1.306401      0.171263
   H     -0.248295     -0.450921      1.405235
   C      1.058799      0.831325      0.245800
   H      1.465854      0.899019     -0.766042
   H      1.894726      0.758428      0.945924
   H      0.510744      1.751396      0.463094
  Na      0.000000      0.000000      6.240000
