   12
 0022.xyz Energy 0.0979519
   N      1.148386      0.290488     -0.389560
   C      0.069837     -0.296293      0.481313
   H      2.084131      0.087264      0.000454
   H      1.043972      1.316595     -0.459714
   H      1.103662     -0.105033     -1.343656
   H      0.195743      0.138872      1.477480
   H      0.259625     -1.372609      0.536848
   C     -1.367448     -0.050223     -0.011665
   H     -1.580754      1.020154     -0.065463
   H     -2.085285     -0.507368      0.673894
   H     -1.517061     -0.485495     -1.002758
  Na      0.000000      0.000000      4.900000
