   12
 0023.xyz Energy 0.0951809
   N      0.472510      0.760097     -0.868285
   C      0.077476      0.265889      0.497624
   H      0.925895      1.687147     -0.804655
   H     -0.356643      0.847707     -1.479471
   H      1.136491      0.106262     -1.315907
   H     -0.595437      1.016546      0.923384
   H      0.992591      0.228110      1.096538
   C     -0.608573     -1.111929      0.515584
   H     -1.530923     -1.093227     -0.070096
   H     -0.860680     -1.394924      1.540580
   H      0.051120     -1.878737      0.102156
  Na      0.000000      0.000000      4.860000
