   12
 0024.xyz Energy 0.082212
   N     -0.624165     -0.236290     -1.053336
   C      0.168657     -0.506890      0.197347
   H     -0.843376     -1.118835     -1.545362
   H     -0.091896      0.369911     -1.699811
   H     -1.515085      0.236512     -0.826495
   H      1.076723     -1.033832     -0.111391
   H     -0.437200     -1.175344      0.816755
   C      0.548691      0.745164      1.008089
   H      1.162742      1.422654      0.409718
   H      1.119313      0.461377      1.895848
   H     -0.345579      1.281852      1.334217
  Na      0.000000      0.000000      5.700000
