   12
 0025.xyz Energy 0.0792768
   N      0.068440     -1.068959     -0.638414
   C      0.156708      0.408590     -0.364452
   H      0.338008     -1.276502     -1.614779
   H     -0.895608     -1.411498     -0.490098
   H      0.698843     -1.595624     -0.010757
   H     -0.506361      0.903430     -1.080722
   H      1.189181      0.706822     -0.570892
   C     -0.225177      0.826895      1.066824
   H     -1.257305      0.546037      1.290275
   H     -0.133730      1.909901      1.180833
   H      0.431788      0.349943      1.798277
  Na      0.000000      0.000000      6.060000
