   12
 0026.xyz Energy 0.0929527
   N     -0.630336      0.586586      0.901956
   C      0.059443     -0.538006      0.177044
   H     -1.006892      0.260877      1.808129
   H     -1.415591      0.956467      0.340457
   H      0.028604      1.361561      1.086208
   H     -0.682549     -1.331419      0.044702
   H      0.853004     -0.899898      0.837995
   C      0.658473     -0.158265     -1.189091
   H     -0.120163      0.197514     -1.868243
   H      1.138693     -1.027324     -1.645586
   H      1.409533      0.627652     -1.077947
  Na      0.000000      0.000000      6.260000
