   12
 0027.xyz Energy 0.0704566
   N      0.282046     -0.454492     -1.126418
   C     -0.434560     -0.315227      0.190047
   H     -0.121026     -1.227666     -1.682084
   H      1.285533     -0.653284     -0.977375
   H      0.203429      0.415395     -1.679458
   H     -0.339184     -1.275865      0.705459
   H     -1.489471     -0.139259     -0.041810
   C      0.089544      0.811984      1.097833
   H      1.140596      0.650055      1.349167
   H     -0.482866      0.844568      2.028180
   H     -0.005170      1.782463      0.604567
  Na      0.000000      0.000000      6.800000
