   12
 0028.xyz Energy 0.108009
   N     -1.232862     -0.159631     -0.097471
   C      0.143160      0.360372     -0.417092
   H     -1.931825      0.228690     -0.752976
   H     -1.509653      0.104338      0.862960
   H     -1.260268     -1.190514     -0.170051
   H      0.091780      1.451641     -0.353359
   H      0.356368      0.074219     -1.451606
   C      1.262618     -0.158390      0.503271
   H      1.073309      0.125177      1.541467
   H      2.224461      0.265093      0.203635
   H      1.336761     -1.247199      0.447514
  Na      0.000000      0.000000      4.480000
