   12
 0030.xyz Energy 0.0955001
   N     -0.657486      1.049034     -0.148898
   C      0.337325     -0.037818     -0.457286
   H     -0.664700      1.761416     -0.898224
   H     -0.421406      1.519198      0.741007
   H     -1.611216      0.658954     -0.065390
   H      1.312715      0.446822     -0.563630
   H      0.046820     -0.467566     -1.420865
   C      0.427624     -1.153438      0.599409
   H      0.725930     -0.746053      1.568507
   H      1.168690     -1.898529      0.299536
   H     -0.535364     -1.656906      0.714668
  Na      0.000000      0.000000      5.140000
