   12
 0031.xyz Energy 0.0894687
   N     -1.017428      0.210289     -0.689601
   C     -0.161138     -0.364202      0.407088
   H     -1.985549     -0.146435     -0.622389
   H     -0.642859     -0.046099     -1.618408
   H     -1.048570      1.241721     -0.627014
   H     -0.199085     -1.452712      0.300902
   H     -0.630816     -0.082744      1.354581
   C      1.304992      0.104576      0.398288
   H      1.795708     -0.175290     -0.537112
   H      1.853881     -0.356630      1.223074
   H      1.365597      1.189665      0.512392
  Na      0.000000      0.000000      5.300000
