   12
 0032.xyz Energy 0.0875973
   N     -0.924823      0.226458     -0.805202
   C     -0.181909      0.193915      0.503621
   H     -1.854415      0.663443     -0.687171
   H     -1.062282     -0.730385     -1.171636
   H     -0.399813      0.770399     -1.510347
   H     -0.805285     -0.365988      1.207525
   H     -0.100980      1.229973      0.846543
   C      1.219563     -0.439325      0.438442
   H      1.160099     -1.478722      0.106452
   H      1.687840     -0.422515      1.425710
   H      1.861754      0.111163     -0.253415
  Na      0.000000      0.000000      5.400000
