   12
 0033.xyz Energy 0.0984215
   N     -0.678216     -0.835123      0.630494
   C      0.534761     -0.062644      0.185566
   H     -0.423903     -1.532156      1.350564
   H     -1.105595     -1.335870     -0.166574
   H     -1.388753     -0.200734      1.032272
   H      1.253448     -0.794315     -0.196163
   H      0.951569      0.412588      1.078867
   C      0.265181      1.005571     -0.889427
   H     -0.143411      0.549860     -1.794678
   H      1.193603      1.517650     -1.154132
   H     -0.444401      1.752178     -0.524484
  Na      0.000000      0.000000      5.640000
