   12
 0034.xyz Energy 0.0941111
   N     -0.473217      0.257524      1.124579
   C     -0.348118      0.249261     -0.375515
   H     -1.306245      0.794548      1.419026
   H      0.359437      0.689930      1.558666
   H     -0.564673     -0.705473      1.489284
   H     -0.288439      1.294564     -0.693870
   H     -1.271086     -0.189526     -0.766868
   C      0.864222     -0.526597     -0.921080
   H      1.797992     -0.097951     -0.549010
   H      0.879945     -0.483471     -2.012939
   H      0.819150     -1.576520     -0.621514
  Na      0.000000      0.000000      6.360000
