    9
 0020.xyz Energy -0.125938
   N      0.254061     -0.380450     -0.513892
   C     -0.290814      0.435509      0.588243
   H      1.121386      0.026373     -0.888031
   H     -0.414419     -0.453304     -1.292164
   H      0.470254     -1.336166     -0.201182
   H     -0.498600      1.432253      0.194652
   H      0.461378      0.474385      1.378469
   H     -1.205156     -0.046220      0.939937
  Br      0.000000      0.000000      4.060000
