    9
 0021.xyz Energy -0.141631
   N     -0.432959      0.525244     -0.100199
   C      0.495613     -0.601234      0.114705
   H      0.042741      1.429962      0.013521
   H     -1.213879      0.500011      0.568686
   H     -0.835302      0.503933     -1.046553
   H      0.886374     -0.522660      1.130932
   H      1.297259     -0.518384     -0.621679
   H     -0.066393     -1.527494     -0.019328
  Br      0.000000      0.000000      3.840000
