    9
 0024.xyz Energy -0.132557
   N      0.537429      0.011489      0.429433
   C     -0.615185     -0.013161     -0.491575
   H      1.376580     -0.389533     -0.009595
   H      0.346482     -0.529239      1.283266
   H      0.767320      0.972065      0.716422
   H     -0.807880     -1.054177     -0.757548
   H     -0.351233      0.574791     -1.372712
   H     -1.468996      0.423268      0.030257
  Br      0.000000      0.000000      4.580000
