    9
 0027.xyz Energy -0.164279
   N      0.028567      0.073399      0.683499
   C     -0.032706     -0.084006     -0.782397
   H     -0.611417      0.810017      1.008386
   H      0.975700      0.327356      0.993863
   H     -0.231809     -0.797336      1.165106
   H      0.252876      0.868476     -1.232737
   H     -1.057414     -0.351822     -1.046988
   H      0.664806     -0.875643     -1.062687
  Br      0.000000      0.000000      3.800000
