    9
 0029.xyz Energy -0.143177
   N      0.338158     -0.321989      0.505319
   C     -0.387074      0.368584     -0.578438
   H      1.180223      0.198675      0.783839
   H      0.637466     -1.262503      0.215963
   H     -0.250748     -0.428371      1.341855
   H      0.287590      0.449943     -1.432718
   H     -0.676139      1.355124     -0.211095
   H     -1.265142     -0.230475     -0.827235
  Br      0.000000      0.000000      4.360000
