    9
 0030.xyz Energy -0.141905
   N     -0.368369      0.000451      0.581101
   C      0.421667     -0.000530     -0.665182
   H     -0.392324     -0.933842      1.010358
   H     -1.341045      0.286477      0.407978
   H      0.026310      0.649582      1.274481
   H     -0.045507     -0.704745     -1.356135
   H      1.438207     -0.310847     -0.415960
   H      0.408733      1.013419     -1.069551
  Br      0.000000      0.000000      4.420000
