    9
 0032.xyz Energy -0.133108
   N      0.338094      0.593492     -0.082673
   C     -0.387019     -0.679363      0.094624
   H     -0.160423      1.222328     -0.725934
   H      1.278745      0.438298     -0.468638
   H      0.448505      1.089585      0.811542
   H     -0.471050     -1.154956     -0.884323
   H     -1.372008     -0.448286      0.504699
   H      0.189708     -1.299008      0.783970
  Br      0.000000      0.000000      4.120000
