    9
 0033.xyz Energy -0.125237
   N      0.156856     -0.192987      0.641504
   C     -0.179551      0.220923     -0.734320
   H     -0.084831      0.538698      1.322652
   H      1.162207     -0.386870      0.739272
   H     -0.350455     -1.046245      0.910771
   H      0.387494      1.126289     -0.958729
   H     -1.253884      0.410924     -0.772660
   H      0.099288     -0.593519     -1.405666
  Br      0.000000      0.000000      4.960000
