    9
 0035.xyz Energy -0.125987
   N      0.490229      0.137810     -0.462665
   C     -0.561169     -0.157740      0.529602
   H      0.345306      1.057503     -0.899584
   H      0.503385     -0.563515     -1.214896
   H      1.423095      0.144506     -0.029496
   H     -1.521536     -0.150506      0.010729
   H     -0.523673      0.617815      1.296981
   H     -0.352045     -1.141209      0.954844
  Br      0.000000      0.000000      4.080000
