    9
 0036.xyz Energy -0.118863
   N     -0.009874     -0.197837     -0.658891
   C      0.011294      0.226472      0.754224
   H     -0.304663      0.570003     -1.276353
   H     -0.661176     -0.980261     -0.805513
   H      0.920119     -0.506643     -0.971414
   H     -0.998804      0.540573      1.023724
   H      0.716973      1.054581      0.843739
   H      0.330182     -0.627700      1.354619
  Br      0.000000      0.000000      4.340000
