    9
 0038.xyz Energy -0.111459
   N     -0.196979     -0.019081     -0.658946
   C      0.225469      0.021848      0.754293
   H     -0.897346      0.706205     -0.861884
   H     -0.614201     -0.927976     -0.899185
   H      0.598822      0.133248     -1.292520
   H     -0.658773     -0.145502      1.372110
   H      0.657390      1.006067      0.945386
   H      0.964699     -0.767233      0.904837
  Br      0.000000      0.000000      4.660000
