    9
 0040.xyz Energy -0.104275
   N      0.213827      0.183186     -0.627770
   C     -0.244764     -0.209704      0.718600
   H      0.135284     -0.597237     -1.292984
   H      1.197935      0.481975     -0.616091
   H     -0.342310      0.964269     -0.999981
   H      0.381270     -1.037789      1.056156
   H     -1.290029     -0.514573      0.639630
   H     -0.136944      0.656590      1.374102
  Br      0.000000      0.000000      4.980000
