    9
 0041.xyz Energy -0.12705
   N     -0.039253      0.170505     -0.665404
   C      0.044927     -0.195164      0.761685
   H     -0.149925      1.185836     -0.786204
   H     -0.840524     -0.284628     -1.122240
   H      0.808557     -0.111211     -1.175082
   H     -0.879118      0.128457      1.244383
   H      0.910232      0.316704      1.187124
   H      0.160905     -1.278969      0.822416
  Br      0.000000      0.000000      3.860000
