    9
 0042.xyz Energy -0.161008
   N     -0.056072     -0.029923      0.685081
   C      0.064178      0.034241     -0.784206
   H     -0.249387     -0.988469      1.003761
   H     -0.819862      0.569162      1.025084
   H      0.809427      0.280772      1.145839
   H     -0.880831     -0.305969     -1.211758
   H      0.887038     -0.618981     -1.080793
   H      0.268062      1.071287     -1.057595
  Br      0.000000      0.000000      3.920000
