    9
 0046.xyz Energy -0.109469
   N     -0.147305      0.116849     -0.661833
   C      0.168624     -0.133743      0.757595
   H      0.426609      0.879701     -1.044477
   H     -1.133912      0.379959     -0.785360
   H      0.024597     -0.718275     -1.237105
   H     -0.033505      0.784691      1.311860
   H      1.223627     -0.406901      0.821740
   H     -0.469745     -0.949254      1.102850
  Br      0.000000      0.000000      4.740000
