    9
 0048.xyz Energy -0.128697
   N      0.495627      0.330924     -0.343829
   C     -0.567347     -0.378794      0.393577
   H      0.376310      1.350703     -0.284240
   H      0.494029      0.076903     -1.340499
   H      1.426456      0.105786      0.031390
   H     -1.524935     -0.099608     -0.049894
   H     -0.513273     -0.068210      1.438744
   H     -0.385441     -1.450467      0.292576
  Br      0.000000      0.000000      4.140000
