    9
 0052.xyz Energy -0.128877
   N      0.627859      0.087282      0.267489
   C     -0.718702     -0.099901     -0.306200
   H      0.979932      1.038050      0.094796
   H      1.303908     -0.571870     -0.140378
   H      0.625669     -0.061836      1.285171
   H     -0.649990      0.071056     -1.382137
   H     -1.385971      0.624558      0.164620
   H     -1.034393     -1.122437     -0.090485
  Br      0.000000      0.000000      4.600000
