    9
 0053.xyz Energy -0.112569
   N     -0.234943      0.609298     -0.216640
   C      0.268924     -0.697462      0.247988
   H     -1.173813      0.802909      0.155886
   H     -0.295952      0.644086     -1.242772
   H      0.381144      1.376520      0.082903
   H     -0.424317     -1.465539     -0.099951
   H      0.310312     -0.670865      1.338557
   H      1.262955     -0.843129     -0.179163
  Br      0.000000      0.000000      4.780000
