    9
 0000.xyz Energy 0.0983284
   N      0.224087      0.054820     -0.648193
   C     -0.256498     -0.062754      0.741985
   H      1.135797     -0.405351     -0.769713
   H      0.335149      1.039355     -0.924301
   H     -0.432626     -0.379897     -1.309757
   H      0.479679      0.414756      1.391303
   H     -0.353344     -1.125276      0.973134
   H     -1.222203      0.442396      0.805311
   K      0.000000      0.000000      4.900000
