    9
 0001.xyz Energy 0.097836
   N      0.324165     -0.393181     -0.462277
   C     -0.371066      0.450082      0.529157
   H      0.999205      0.154182     -1.012234
   H     -0.339253     -0.819725     -1.122442
   H      0.842164     -1.156570     -0.007488
   H     -0.898898      1.236789     -0.013126
   H      0.383037      0.871399      1.196676
   H     -1.069323     -0.185498      1.077108
   K      0.000000      0.000000      4.980000
