    9
 0002.xyz Energy 0.102008
   N     -0.666833      0.168987      0.012317
   C      0.763316     -0.193446     -0.014110
   H     -1.248246     -0.568983     -0.406129
   H     -0.843357      1.036341     -0.511530
   H     -0.998485      0.315845      0.974793
   H      1.052730     -0.334880     -1.057097
   H      0.884438     -1.116759      0.555613
   H      1.323751      0.625256      0.441316
   K      0.000000      0.000000      5.060000
