    9
 0005.xyz Energy 0.0852432
   N     -0.573333      0.072958      0.373285
   C      0.656294     -0.083502     -0.427291
   H     -0.727332      1.055443      0.635476
   H     -0.527170     -0.475584      1.242106
   H     -1.402354     -0.241902     -0.147778
   H      1.495223      0.265773      0.177516
   H      0.545655      0.519421     -1.330620
   H      0.762773     -1.141978     -0.672372
   K      0.000000      0.000000      6.400000
