    9
 0010.xyz Energy 0.0839155
   N     -0.538956     -0.130277     -0.407344
   C      0.616946      0.149129      0.466272
   H     -0.237191     -0.432481     -1.342945
   H     -1.128669      0.703893     -0.526837
   H     -1.131753     -0.875083     -0.017763
   H      1.203165      0.943521      0.000575
   H      1.199922     -0.769780      0.552914
   H      0.232481      0.463278      1.438523
   K      0.000000      0.000000      5.960000
