    9
 0011.xyz Energy 0.0799975
   N     -0.195501      0.170063     -0.637364
   C      0.223795     -0.194680      0.729580
   H     -0.137626     -0.635183     -1.274521
   H      0.398302      0.914906     -1.025290
   H     -1.166649      0.508474     -0.653709
   H      1.256857     -0.543836      0.679994
   H     -0.441182     -0.984944      1.083205
   H      0.140290      0.697149      1.353633
   K      0.000000      0.000000      6.180000
