    9
 0014.xyz Energy 0.0986637
   N     -0.053353     -0.233556     -0.644965
   C      0.061060      0.267347      0.738288
   H     -1.022703     -0.179099     -0.984278
   H      0.243798     -1.215834     -0.713602
   H      0.531793      0.312603     -1.290902
   H     -0.579415     -0.349943      1.371006
   H     -0.267012      1.308543      0.744652
   H      1.107362      0.183579      1.038301
   K      0.000000      0.000000      4.880000
