    9
 0015.xyz Energy 0.091266
   N     -0.156026      0.448094     -0.498240
   C      0.178607     -0.512937      0.570321
   H     -0.204979     -0.013813     -1.415837
   H      0.548270      1.194696     -0.564818
   H     -1.066319      0.895689     -0.328111
   H      1.149819     -0.951200      0.333130
   H     -0.602096     -1.275747      0.589947
   H      0.215205      0.035701      1.513418
   K      0.000000      0.000000      5.400000
