    9
 0016.xyz Energy 0.088521
   N      0.076478      0.183540     -0.658664
   C     -0.087536     -0.210087      0.753971
   H      0.945967      0.713978     -0.801363
   H     -0.702657      0.775450     -0.975637
   H      0.110977     -0.638955     -1.275293
   H     -0.116946      0.701710      1.353427
   H      0.765974     -0.832979      1.028357
   H     -1.023005     -0.766335      0.839174
   K      0.000000      0.000000      5.520000
