    9
 0017.xyz Energy 0.0964438
   N     -0.275652     -0.004064      0.630376
   C      0.315525      0.004646     -0.721591
   H     -0.969411     -0.756575      0.731189
   H     -0.750586      0.884442      0.837436
   H      0.442694     -0.146596      1.352584
   H     -0.492990      0.158921     -1.438591
   H      0.801761     -0.959895     -0.879698
   H      1.039266      0.820823     -0.764327
   K      0.000000      0.000000      5.880000
