    9
 0020.xyz Energy 0.0834736
   N      0.433183      0.224613      0.485053
   C     -0.495851     -0.257111     -0.555245
   H      1.224457      0.736325      0.073017
   H      0.820390     -0.555581      1.032088
   H     -0.037543      0.860061      1.142733
   H      0.060632     -0.922890     -1.217553
   H     -0.870258      0.613191     -1.097604
   H     -1.308751     -0.788647     -0.056811
   K      0.000000      0.000000      6.620000
