    9
 0021.xyz Energy 0.11471
   N     -0.390552     -0.550901      0.131729
   C      0.447069      0.630603     -0.150796
   H      0.127157     -1.424682     -0.030198
   H     -1.225711     -0.570317     -0.468281
   H     -0.711373     -0.557807      1.108942
   H      0.753855      0.579931     -1.197172
   H      1.312049      0.593493      0.514180
   H     -0.156038      1.520579      0.038883
   K      0.000000      0.000000      4.560000
