    9
 0023.xyz Energy 0.0883152
   N      0.021048      0.249794     -0.640730
   C     -0.024096     -0.285950      0.733433
   H     -0.493503     -0.353853     -1.295393
   H      0.988282      0.323369     -0.982674
   H     -0.397166      1.188136     -0.691046
   H      0.431941     -1.277638      0.720352
   H     -1.071411     -0.339406      1.036808
   H      0.536497      0.395557      1.376127
   K      0.000000      0.000000      5.540000
