    9
 0025.xyz Energy 0.0922416
   N      0.626908     -0.276704      0.061615
   C     -0.717610      0.316752     -0.070535
   H      1.353603      0.449267      0.112776
   H      0.849863     -0.881788     -0.739662
   H      0.701584     -0.849852      0.912406
   H     -0.732427      0.909340     -0.987163
   H     -0.893331      0.944102      0.805430
   H     -1.439933     -0.500331     -0.119512
   K      0.000000      0.000000      5.660000
