    9
 0030.xyz Energy 0.102658
   N     -0.320662     -0.586043     -0.164634
   C      0.367063      0.670833      0.188466
   H     -0.527243     -1.147915      0.671645
   H      0.254034     -1.164284     -0.791724
   H     -1.212738     -0.403505     -0.642964
   H      1.301118      0.410871      0.690011
   H     -0.290398      1.236387      0.851531
   H      0.557313      1.218620     -0.736470
   K      0.000000      0.000000      4.880000
