    9
 0031.xyz Energy 0.0957756
   N     -0.139074      0.673400      0.023788
   C      0.159202     -0.770833     -0.027242
   H     -0.201669      1.076718     -0.920222
   H      0.590904      1.189057      0.532816
   H     -1.033706      0.854768      0.497770
   H      1.115213     -0.896478     -0.538948
   H     -0.647577     -1.259253     -0.577073
   H      0.212397     -1.137314      0.999712
   K      0.000000      0.000000      5.400000
