    9
 0032.xyz Energy 0.0880499
   N     -0.518290     -0.242475      0.382042
   C      0.593282      0.277548     -0.437327
   H     -0.531143     -1.270848      0.386826
   H     -1.428433      0.076704      0.024769
   H     -0.442228      0.070631      1.358822
   H      0.455974     -0.087739     -1.456787
   H      1.526135     -0.094399     -0.009307
   H      0.552442      1.367898     -0.402098
   K      0.000000      0.000000      6.220000
