    9
 0033.xyz Energy 0.0868514
   N      0.280773      0.218343      0.588955
   C     -0.321386     -0.249936     -0.674177
   H      1.241353      0.555865      0.443687
   H      0.320008     -0.535549      1.287517
   H     -0.260362      0.991454      0.998090
   H      0.295372     -1.065735     -1.055842
   H     -0.334307      0.591163     -1.369983
   H     -1.334128     -0.593103     -0.454259
   K      0.000000      0.000000      6.460000
