    9
 0034.xyz Energy 0.0732713
   N     -0.290017      0.532337     -0.325396
   C      0.331985     -0.609366      0.372466
   H     -0.373828      0.354026     -1.334811
   H      0.264406      1.390625     -0.207767
   H     -1.234528      0.722275      0.034801
   H      1.326165     -0.759178     -0.052681
   H     -0.300242     -1.484469      0.210463
   H      0.392245     -0.359583      1.433480
   K      0.000000      0.000000      6.940000
