    6
 0000.xyz Energy -0.158783
   H      0.856473      0.526401     -0.194735
   N     -0.000005     -0.000003      0.000001
   H     -0.733582      0.287738     -0.653874
   H      0.182311     -1.001525     -0.110736
   H     -0.305137      0.187427      0.959330
   F      0.000000      0.000000      3.560000
