    6
 0005.xyz Energy -0.162216
   H      0.847765      0.460605      0.343077
   N     -0.000005     -0.000003     -0.000002
   H     -0.352055      0.500648     -0.820912
   H      0.217247     -0.967062     -0.257191
   H     -0.712894      0.005844      0.735051
   F      0.000000      0.000000      3.380000
