    6
 0008.xyz Energy -0.155344
   H      0.998156     -0.035119     -0.225865
   N     -0.000005      0.000000      0.000001
   H     -0.376599     -0.951681      0.031048
   H     -0.128019      0.447667      0.912007
   H     -0.493463      0.539130     -0.717207
   F      0.000000      0.000000      3.600000
