    6
 0009.xyz Energy -0.178781
   H     -0.955740      0.195267      0.311441
   N      0.000005     -0.000001     -0.000002
   H      0.075218      0.181219     -1.004982
   H      0.653934      0.604317      0.505691
   H      0.226516     -0.980789      0.187873
   F      0.000000      0.000000      2.980000
