    6
 0011.xyz Energy -0.152385
   H      0.213455     -0.014880      1.001389
   N     -0.000001      0.000000     -0.000005
   H     -0.710611      0.713143     -0.186940
   H      0.850227      0.218968     -0.526990
   H     -0.353056     -0.917232     -0.287383
   F      0.000000      0.000000      3.720000
