    6
 0014.xyz Energy -0.153277
   H      0.770546      0.466103     -0.487413
   N     -0.000004     -0.000003      0.000003
   H      0.151757     -1.012584     -0.011363
   H     -0.039215      0.328414      0.969102
   H     -0.883030      0.218103     -0.470363
   F      0.000000      0.000000      3.680000
