    6
 0015.xyz Energy -0.174809
   H     -0.014488     -0.712586     -0.735239
   N      0.000000      0.000004      0.000004
   H     -0.874944     -0.039114      0.530499
   H      0.788762     -0.174756      0.629179
   H      0.100669      0.926403     -0.424495
   F      0.000000      0.000000      3.120000
