    6
 0017.xyz Energy -0.168473
   H      0.294867      0.765294      0.613143
   N     -0.000002     -0.000004     -0.000003
   H      0.785429     -0.639794     -0.149170
   H     -0.775368     -0.507229      0.435975
   H     -0.304906      0.381788     -0.899902
   F      0.000000      0.000000      3.220000
