    6
 0019.xyz Energy -0.167077
   H     -0.084184      0.740951      0.701761
   N      0.000000     -0.000004     -0.000004
   H      0.377160     -0.844668      0.439058
   H     -0.922975     -0.203231     -0.394167
   H      0.629992      0.307004     -0.746600
   F      0.000000      0.000000      3.280000
