    6
 0022.xyz Energy -0.166568
   H      0.637100     -0.557682     -0.575899
   N     -0.000003      0.000003      0.000003
   H      0.533953      0.488916      0.724115
   H     -0.482098      0.684622     -0.589428
   H     -0.688906     -0.615898      0.441168
   F      0.000000      0.000000      3.300000
