    6
 0023.xyz Energy -0.161255
   H      0.907839     -0.321034      0.348325
   N     -0.000005      0.000002     -0.000002
   H     -0.552074      0.371754      0.778139
   H      0.142954      0.734745     -0.698760
   H     -0.498649     -0.785489     -0.427677
   F      0.000000      0.000000      3.420000
