    6
 0024.xyz Energy -0.161459
   H      1.021990      0.042149      0.048204
   N     -0.000006     -0.000000     -0.000000
   H     -0.330842      0.600172     -0.760804
   H     -0.293945     -0.965288     -0.174263
   H     -0.397125      0.322970      0.886867
   F      0.000000      0.000000      3.460000
