    6
 0026.xyz Energy -0.152282
   H     -0.990544     -0.228588     -0.123021
   N      0.000005      0.000001      0.000001
   H      0.187615      0.927046     -0.392266
   H      0.229132     -0.001086      0.998023
   H      0.573723     -0.697389     -0.482745
   F      0.000000      0.000000      3.720000
