    6
 0027.xyz Energy -0.171219
   H     -0.354262      0.671432      0.687199
   N      0.000002     -0.000004     -0.000004
   H     -0.740055     -0.223905     -0.671321
   H      0.798237      0.407537     -0.495261
   H      0.296053     -0.855012      0.479436
   F      0.000000      0.000000      3.200000
