    6
 0028.xyz Energy -0.167815
   H      0.708652      0.643697     -0.363362
   N     -0.000004     -0.000004      0.000002
   H     -0.585840      0.487873      0.683563
   H     -0.583459     -0.336103     -0.771468
   H      0.460700     -0.795418      0.451240
   F      0.000000      0.000000      3.260000
