    6
 0029.xyz Energy -0.154104
   H     -0.918468      0.451900     -0.027708
   N      0.000005     -0.000002      0.000000
   H      0.725814      0.688391     -0.218630
   H      0.163721     -0.383284      0.935329
   H      0.028864     -0.756972     -0.688994
   F      0.000000      0.000000      3.640000
