    6
 0039.xyz Energy -0.245516
   H      0.977000      0.586000      0.134000
   N      0.151000     -0.000000      0.076000
   H     -0.640000      0.402000     -0.417000
   H      0.323000     -0.986000     -0.096000
   H     -0.191000     -0.003000      1.088000
   F     -0.620000      0.001000      2.395000
