   14
 0000.xyz Energy -0.00128941
   N     -0.660120     -0.053469      1.056557
   C     -0.361227     -0.144171     -0.416003
   H     -1.647806     -0.294551      1.244666
   H     -0.489601      0.904387      1.406063
   H     -0.061519     -0.704371      1.592040
   H     -1.048009      0.541907     -0.921174
   H     -0.592703     -1.168856     -0.722596
   C      1.088391      0.196402     -0.805857
   H      1.337184      1.220302     -0.516319
   H      1.219931      0.105776     -1.886942
   H      1.790865     -0.483958     -0.318260
   O     -0.022973     -0.061050      4.345596
   H      0.693065      0.342730      4.844968
   H     -0.328385      0.626383      3.746196
