   14
 0003.xyz Energy -0.00109845
   N     -0.038053      1.215620     -0.275228
   C      0.010808     -0.029994      0.568606
   H     -0.050581      2.060560      0.320547
   H     -0.886690      1.224449     -0.865530
   H      0.787523      1.270113     -0.895061
   H     -0.869339     -0.006705      1.218504
   H      0.911113      0.042376      1.186483
   C      0.032921     -1.349647     -0.223477
   H     -0.863436     -1.446011     -0.841019
   H      0.068834     -2.200551      0.461311
   H      0.910296     -1.397020     -0.873154
   O     -0.054298     -0.036566      3.539049
   H      0.004552      0.922553      3.580874
   H      0.857376     -0.342108      3.514216
