   14
 0004.xyz Energy -0.0052981
   N      0.268697     -0.748907      0.960141
   C     -0.395612     -0.274081     -0.304467
   H     -0.089420     -1.679353      1.234097
   H      0.087557     -0.091805      1.737395
   H      1.291713     -0.822289      0.830562
   H     -1.471767     -0.250929     -0.107173
   H     -0.190722     -1.027839     -1.070906
   C      0.067952      1.106989     -0.801580
   H     -0.136397      1.876786     -0.053412
   H     -0.460422      1.374662     -1.719967
   H      1.139985      1.102859     -1.013330
   O     -0.021239     -0.058275      4.539043
   H      0.179572      0.200667      5.443336
   H      0.157571      0.724388      4.009338
