   14
 0005.xyz Energy -0.0111022
   N     -0.585208      0.797148      0.759616
   C     -0.136918     -0.520501      0.186175
   H     -1.203937      0.649576      1.574739
   H     -1.105971      1.344814      0.054218
   H      0.227171      1.357007      1.068382
   H     -1.042256     -1.070753     -0.087971
   H      0.375388     -1.057002      0.990705
   C      0.792233     -0.413412     -1.036354
   H      0.295499      0.111830     -1.855790
   H      1.069788     -1.410125     -1.388190
   H      1.707808      0.125782     -0.781200
   O     -0.063858     -0.006518      4.027120
   H      0.452513      0.804944      4.030401
   H      0.561170     -0.701472      4.254060
