   14
 0007.xyz Energy -0.0083629
   N      0.188182      0.370225     -1.175777
   C      0.250839     -0.509365      0.044220
   H      0.676820     -0.073288     -1.971741
   H      0.635276      1.283896     -0.991299
   H     -0.792830      0.540593     -1.453855
   H      1.310660     -0.674020      0.261564
   H     -0.208237     -1.463900     -0.230866
   C     -0.449484      0.060030      1.291098
   H      0.000762      1.010277      1.588434
   H     -0.357949     -0.637600      2.127277
   H     -1.512489      0.223594      1.097764
   O     -0.022112      0.000444      4.758379
   H     -0.277736     -0.597046      5.467452
   H      0.628747      0.590002      5.150712
