   14
 0009.xyz Energy 0.0045873
   N      0.896274     -0.683318     -0.533574
   C     -0.427348      0.016126     -0.376088
   H      0.951565     -1.159221     -1.449810
   H      1.025306     -1.393039      0.206944
   H      1.676424     -0.007689     -0.473346
   H     -1.203618     -0.747888     -0.482200
   H     -0.510431      0.725103     -1.205551
   C     -0.613503      0.759320      0.958969
   H     -0.543250      0.066604      1.801173
   H     -1.595618      1.237514      0.991227
   H      0.147546      1.533987      1.080656
   O      0.031135     -0.009394      4.556821
   H     -0.049102      0.811708      4.062377
   H     -0.445134     -0.662593      4.035648
