   14
 0011.xyz Energy 0.00266846
   N      0.346962      1.168869     -0.261331
   C      0.411025     -0.213329      0.331479
   H      1.175993      1.722820      0.012303
   H     -0.497066      1.668310      0.065615
   H      0.315958      1.123016     -1.293646
   H      0.474097     -0.089519      1.416957
   H      1.338501     -0.668761     -0.028979
   C     -0.780349     -1.124000     -0.015904
   H     -1.716883     -0.691133      0.344138
   H     -0.655360     -2.104010      0.451235
   H     -0.855871     -1.268030     -1.096489
   O      0.037464     -0.052158      4.512735
   H     -0.691682      0.287315      5.040204
   H      0.096976      0.540648      3.757645
