   14
 0013.xyz Energy 0.00341851
   N     -0.204869     -1.010734     -0.700982
   C     -0.262781     -0.099031      0.495447
   H     -0.722574     -1.886900     -0.518377
   H      0.773707     -1.255388     -0.927369
   H     -0.623978     -0.554896     -1.528809
   H      0.164714     -0.653270      1.336659
   H     -1.321535      0.091363      0.696322
   C      0.479702      1.238897      0.328014
   H      1.542185      1.071017      0.135541
   H      0.387959      1.838068      1.237321
   H      0.061626      1.812810     -0.502617
   O      0.028528      0.042702      4.340608
   H     -0.913032     -0.118273      4.228026
   H      0.460182     -0.559575      3.727371
