   14
 0015.xyz Energy -0.0113723
   N      0.574958     -0.462513      1.005204
   C      0.328572     -0.138533     -0.444047
   H      1.454831     -0.993976      1.116555
   H     -0.197216     -1.032816      1.388896
   H      0.647499      0.402788      1.566212
   H      0.295520     -1.091917     -0.980272
   H      1.193792      0.434744     -0.790901
   C     -0.961136      0.654678     -0.721240
   H     -1.839177      0.094730     -0.390177
   H     -1.063030      0.847623     -1.792058
   H     -0.944377      1.615654     -0.201283
   O     -0.044118     -0.005657      3.991960
   H     -0.197799     -0.076326      4.938802
   H      0.898134      0.166118      3.903780
