   14
 0017.xyz Energy 0.00731568
   N     -1.217319      0.237076     -0.129853
   C      0.268505      0.477054     -0.157012
   H     -1.729348      1.078357     -0.444655
   H     -1.533128      0.006422      0.827112
   H     -1.472495     -0.547739     -0.752500
   H      0.462408      1.335294      0.493677
   H      0.526159      0.745633     -1.186109
   C      1.126969     -0.717945      0.295074
   H      0.891403     -0.996656      1.325089
   H      2.187997     -0.461087      0.245027
   H      0.954729     -1.584258     -0.348312
   O     -0.028735     -0.021520      4.134749
   H     -0.357552     -0.094479      3.233817
   H      0.813697      0.436084      4.057102
