   14
 0018.xyz Energy -0.0036697
   N     -1.174421     -0.204925     -0.365612
   C     -0.032687      0.385762      0.417670
   H     -2.077104      0.186062     -0.047301
   H     -1.207401     -1.231293     -0.246452
   H     -1.071375      0.000400     -1.373561
   H     -0.221739      0.160047      1.471654
   H     -0.077526      1.469492      0.272487
   C      1.361970     -0.131010      0.021127
   H      1.430898     -1.211693      0.167663
   H      2.130086      0.346392      0.634598
   H      1.574500      0.092653     -1.027165
   O      0.064632      0.010333      4.118522
   H     -0.391423     -0.832508      4.200706
   H     -0.634544      0.668485      4.062760
