   14
 0020.xyz Energy -0.000789451
   N      0.509854     -0.286889     -1.101215
   C      0.381838     -0.155464      0.392886
   H      1.416761     -0.714097     -1.354279
   H      0.451461      0.639549     -1.556212
   H     -0.244667     -0.882240     -1.481994
   H      1.224637      0.455673      0.730189
   H      0.484191     -1.162685      0.808325
   C     -0.937470      0.471613      0.878239
   H     -1.054841      1.482997      0.481469
   H     -0.949119      0.529473      1.969467
   H     -1.792604     -0.129218      0.559086
   O      0.061983     -0.008874      4.539120
   H     -0.373274      0.823733      4.333116
   H     -0.610648     -0.682864      4.403376
