   14
 0021.xyz Energy 0.00608346
   N      0.688124     -0.190881     -1.022243
   C      0.352310     -0.077195      0.440735
   H      1.683753     -0.438393     -1.150654
   H      0.512958      0.704505     -1.508372
   H      0.113136     -0.921807     -1.473766
   H      1.015723      0.685833      0.859353
   H      0.590490     -1.043712      0.895351
   C     -1.111737      0.289087      0.743668
   H     -1.367659      1.256934      0.305630
   H     -1.270074      0.350341      1.823223
   H     -1.791375     -0.466073      0.341254
   O     -0.001013     -0.006085      4.525178
   H     -0.499997     -0.518258      3.881893
   H      0.516074      0.614852      4.003469
