   14
 0023.xyz Energy -0.013656
   N      0.177930      0.571642      1.093845
   C      0.129508      0.385079     -0.399088
   H      0.489100      1.528240      1.332847
   H      0.836043     -0.098909      1.525085
   H     -0.755843      0.422302      1.511581
   H      1.136412      0.588644     -0.776282
   H     -0.556556      1.142826     -0.789847
   C     -0.323606     -1.010582     -0.864047
   H      0.354607     -1.782227     -0.491633
   H     -0.331462     -1.060849     -1.955685
   H     -1.332015     -1.230241     -0.504921
   O      0.023683     -0.035215      4.190147
   H     -0.362187     -0.364062      5.007512
   H     -0.013754      0.923059      4.263850
