   14
 0024.xyz Energy -0.00197772
   N     -0.943041      0.799392      0.163024
   C      0.154159     -0.166556      0.522325
   H     -1.415084      1.149391      1.013733
   H     -1.652010      0.341899     -0.434287
   H     -0.561837      1.610997     -0.351484
   H     -0.311998     -0.978477      1.088939
   H      0.846852      0.371645      1.176600
   C      0.923735     -0.749285     -0.676652
   H      0.250684     -1.299511     -1.338735
   H      1.698923     -1.436995     -0.329662
   H      1.405041      0.045637     -1.251591
   O     -0.063882     -0.014274      4.198734
   H      0.567415     -0.091950      3.477241
   H      0.446644      0.318539      4.942857
