   14
 0025.xyz Energy 0.00503411
   N     -0.394009     -0.531106     -1.057173
   C     -0.200883     -0.325989      0.421552
   H     -0.962999     -1.375263     -1.237943
   H      0.516689     -0.648035     -1.532227
   H     -0.876907      0.279864     -1.478927
   H      0.282740     -1.229310      0.805855
   H     -1.199290     -0.242442      0.861737
   C      0.635801      0.908961      0.801324
   H      1.641177      0.840810      0.378627
   H      0.726590      0.984038      1.887778
   H      0.164785      1.824044      0.434066
   O     -0.006559      0.034403      4.935314
   H     -0.427433     -0.801308      4.712662
   H      0.531547      0.255201      4.169278
