   14
 0026.xyz Energy -0.00516187
   N      0.487469     -1.046810     -0.470631
   C     -0.243597     -0.150091      0.492404
   H      0.501793     -2.020888     -0.124227
   H      1.465009     -0.733218     -0.592265
   H      0.028270     -1.040479     -1.396824
   H      0.273383     -0.229673      1.453637
   H     -1.254135     -0.556727      0.597384
   C     -0.323121      1.327892      0.069783
   H      0.677027      1.756248     -0.031780
   H     -0.867737      1.906427      0.820084
   H     -0.844604      1.430412     -0.885024
   O      0.055058     -0.035402      4.221239
   H     -0.849892     -0.361119      4.211490
   H     -0.024104      0.923087      4.208845
