   14
 0027.xyz Energy -0.00317793
   N      1.010233     -0.474839     -0.555778
   C     -0.270747      0.300474     -0.400924
   H      1.368078     -0.400269     -1.522947
   H      0.860106     -1.475408     -0.343549
   H      1.736166     -0.113672      0.085562
   H     -0.979126     -0.110489     -1.126789
   H     -0.046812      1.337221     -0.670310
   C     -0.890147      0.255246      1.007502
   H     -1.130165     -0.772023      1.292474
   H     -1.812304      0.841089      1.033485
   H     -0.201194      0.670080      1.747345
   O      0.049865      0.042349      4.057502
   H      0.096004     -0.908338      4.196017
   H     -0.887565      0.236086      3.963632
