   14
 0029.xyz Energy -0.00611251
   N     -0.369878     -0.625062      1.013616
   C      0.438919     -0.294399     -0.212152
   H     -0.024787     -1.493519      1.456024
   H     -1.365195     -0.760834      0.769423
   H     -0.308671      0.137553      1.708893
   H      0.356220     -1.152105     -0.886742
   H      1.479264     -0.196687      0.112956
   C      0.005909      0.985713     -0.949162
   H     -1.028906      0.904936     -1.290823
   H      0.641711      1.152188     -1.822262
   H      0.089711      1.856820     -0.294746
   O     -0.005446     -0.062003      4.539698
   H     -0.203599      0.286995      5.413801
   H      0.290041      0.697246      4.028474
