   11
 0001.xyz Energy -0.0153355
   N     -0.260679     -0.043558      0.635235
   C      0.298388      0.049870     -0.727151
   H     -1.241713      0.264198      0.659658
   H      0.264332      0.543431      1.296815
   H     -0.230496     -1.009521      0.987264
   H      0.238155      1.093347     -1.041976
   H     -0.298827     -0.591666     -1.377941
   H      1.335433     -0.288740     -0.686490
   O      0.025630     -0.030550      3.888076
   H      0.422582      0.078999      4.757300
   H     -0.829426      0.405956      3.946934
