   11
 0003.xyz Energy 0.0028597
   N      0.012160     -0.130794      0.675366
   C     -0.013911      0.149708     -0.773088
   H      0.827093     -0.703492      0.931567
   H     -0.830113     -0.640193      0.973643
   H      0.059255      0.737647      1.224466
   H     -0.063784     -0.806364     -1.297516
   H      0.901317      0.688640     -1.025423
   H     -0.896977      0.757393     -0.979699
   O     -0.022183      0.053304      4.430868
   H     -0.314796     -0.855333      4.548679
   H      0.666934      0.009187      3.761322
