   11
 0004.xyz Energy 0.00371885
   N      0.544159      0.094285     -0.410336
   C     -0.622888     -0.107920      0.469718
   H      1.377155      0.365756      0.128329
   H      0.368064      0.834835     -1.102042
   H      0.776352     -0.763698     -0.927898
   H     -0.817370      0.832968      0.987881
   H     -0.374342     -0.901526      1.176948
   H     -1.469309     -0.392577     -0.158229
   O     -0.033620      0.047841      4.609448
   H      0.101254     -0.851273      4.923334
   H      0.432423      0.091837      3.769215
