   11
 0005.xyz Energy -0.00387002
   N      0.124386      0.080333      0.671900
   C     -0.142387     -0.091969     -0.769116
   H      0.253548     -0.826208      1.140129
   H     -0.652679      0.563345      1.141739
   H      0.975525      0.635256      0.831717
   H     -1.052765     -0.685525     -0.871539
   H      0.713935     -0.607599     -1.207977
   H     -0.269375      0.900306     -1.206196
   O     -0.040246      0.051630      3.240893
   H      0.921464      0.059587      3.227787
   H     -0.282595     -0.879165      3.238036
