   11
 0007.xyz Energy -0.0076049
   N      0.082168      0.053460      0.681003
   C     -0.094070     -0.061197     -0.779536
   H     -0.701655     -0.378089      1.188078
   H      0.137171      1.037323      0.975736
   H      0.945363     -0.411434      0.991949
   H     -1.021926      0.448910     -1.044981
   H     -0.145077     -1.123132     -1.027430
   H      0.765237      0.412749     -1.257804
   O      0.017659     -0.062889      3.664409
   H      0.594563      0.706176      3.635380
   H     -0.874874      0.292118      3.614637
