   11
 0008.xyz Energy 0.00311334
   N      0.065320      0.640636     -0.242267
   C     -0.074768     -0.733326      0.277333
   H      0.636397      1.222111      0.385026
   H     -0.850086      1.099039     -0.341149
   H      0.516307      0.647540     -1.166649
   H     -0.557242     -0.673147      1.254669
   H      0.925430     -1.163079      0.359045
   H     -0.687572     -1.296608     -0.429037
   O     -0.029300      0.052178      4.506556
   H      0.018860     -0.838312      4.866876
   H      0.446242      0.010040      3.671568
