   11
 0010.xyz Energy -0.00174392
   N     -0.632675     -0.114311     -0.245009
   C      0.724219      0.130862      0.280452
   H     -0.775608      0.356673     -1.148050
   H     -1.353330      0.231903      0.402040
   H     -0.802922     -1.118366     -0.389261
   H      0.842082      1.208181      0.411138
   H      1.439380     -0.256883     -0.447531
   H      0.812438     -0.392360      1.234512
   O     -0.015121     -0.063433      3.845814
   H     -0.411867      0.677839      4.312964
   H      0.651904      0.329101      3.274749
