   11
 0013.xyz Energy -0.00615887
   N     -0.154325      0.557177     -0.372978
   C      0.176654     -0.637803      0.426934
   H     -0.642301      0.303108     -1.241924
   H      0.692351      1.079151     -0.634823
   H     -0.765137      1.199784      0.148447
   H      0.823129     -1.276145     -0.178191
   H     -0.758364     -1.145352      0.671669
   H      0.689863     -0.303169      1.330488
   O      0.060079     -0.014555      4.318439
   H     -0.377631      0.841652      4.297423
   H     -0.576071     -0.610610      4.724830
