   11
 0015.xyz Energy -0.0104542
   N     -0.120349      0.497648      0.459606
   C      0.137750     -0.569651     -0.526112
   H     -1.127999      0.617517      0.626970
   H      0.249696      1.401937      0.138348
   H      0.320732      0.286677      1.364514
   H     -0.353487     -0.288151     -1.459402
   H     -0.276493     -1.498333     -0.128981
   H      1.218528     -0.647131     -0.659115
   O      0.061239      0.022968      3.802925
   H     -0.752652      0.532393      3.746452
   H     -0.219448     -0.896988      3.807114
