   11
 0016.xyz Energy -0.0154362
   N     -0.020085     -0.103047      0.679965
   C      0.022989      0.117944     -0.778352
   H      0.170248     -1.085833      0.915851
   H     -0.942294      0.135314      1.068030
   H      0.678940      0.473124      1.167110
   H     -0.737614     -0.518044     -1.235069
   H      1.021549     -0.151583     -1.127629
   H     -0.185657      1.173573     -0.962433
   O     -0.058747     -0.003803      3.671354
   H      0.388986      0.787447      3.985330
   H      0.543562     -0.727077      3.869395
