   11
 0020.xyz Energy 0.000489667
   N     -0.667308      0.048728     -0.160314
   C      0.763861     -0.055766      0.183516
   H     -0.964585      1.030617     -0.232818
   H     -1.257576     -0.401534      0.551533
   H     -0.870166     -0.403408     -1.061614
   H      0.913460      0.439898      1.144517
   H      1.333884      0.437957     -0.605834
   H      1.015911     -1.116161      0.245218
   O     -0.036067      0.049563      3.243000
   H      0.921329     -0.038863      3.269370
   H     -0.348808     -0.747895      2.805535
