   11
 0021.xyz Energy -0.00117369
   N     -0.225212      0.630592      0.158141
   C      0.257793     -0.721837     -0.181011
   H     -0.390738      0.726960      1.168612
   H     -1.109380      0.844100     -0.322006
   H      0.456484      1.351147     -0.113906
   H     -0.505663     -1.437022      0.130813
   H      1.193412     -0.886919      0.356693
   H      0.413633     -0.759729     -1.260849
   O      0.049379     -0.037916      3.700258
   H     -0.868477     -0.293410      3.568407
   H      0.084643      0.895286      3.470016
