   11
 0023.xyz Energy -0.00896037
   N     -0.105392     -0.018507     -0.679651
   C      0.120629      0.021188      0.777992
   H     -0.924245      0.543238     -0.947346
   H     -0.268883     -0.979586     -1.007487
   H      0.704841      0.350507     -1.194695
   H     -0.769583     -0.381201      1.265016
   H      0.286900      1.062093      1.061948
   H      0.998120     -0.590353      0.996625
   O      0.019649      0.053036      3.887026
   H      0.564679     -0.555529      4.394679
   H     -0.876591     -0.286368      3.968755
