   11
 0025.xyz Energy 0.00379555
   N      0.383109      0.327470     -0.468365
   C     -0.438536     -0.374864      0.536129
   H      0.672674     -0.306087     -1.224999
   H      1.236772      0.717656     -0.047776
   H     -0.134119      1.106046     -0.897567
   H      0.163146     -1.184989      0.952378
   H     -1.324379     -0.763669      0.030289
   H     -0.712285      0.347307      1.307689
   O      0.054254     -0.033488      4.274878
   H     -0.647311      0.239718      4.873449
   H     -0.213912      0.291869      3.410383
