   11
 0026.xyz Energy 0.00218652
   N     -0.512463      0.144978     -0.435589
   C      0.586620     -0.165959      0.498604
   H     -0.390416     -0.341992     -1.333198
   H     -0.561357      1.152907     -0.634508
   H     -1.423045     -0.139004     -0.050731
   H      1.520459      0.157529      0.035045
   H      0.585555     -1.244343      0.668448
   H      0.399972      0.377810      1.426641
   O      0.025694     -0.049420      4.134406
   H      0.490598      0.699561      3.749680
   H     -0.898460      0.084930      3.904165
