   11
 0027.xyz Energy 8.70031e-05
   N      0.095749      0.237883     -0.638450
   C     -0.109591     -0.272297      0.730832
   H      1.090452      0.421025     -0.824896
   H     -0.414774      1.117631     -0.791063
   H     -0.232106     -0.436304     -1.342653
   H      0.256193      0.484349      1.427449
   H      0.454485     -1.201781      0.829007
   H     -1.178916     -0.445915      0.865643
   O     -0.023683     -0.060923      4.596285
   H     -0.141205      0.569832      5.312845
   H      0.517147      0.397252      3.946131
