   11
 0029.xyz Energy -0.0114744
   N      0.611095      0.130496      0.287939
   C     -0.699509     -0.149381     -0.329612
   H      1.326076      0.329333     -0.424104
   H      0.941900     -0.669213      0.843739
   H      0.563799      0.944579      0.914796
   H     -0.583652     -1.018910     -0.979291
   H     -0.993926      0.732157     -0.902299
   H     -1.410795     -0.351333      0.473545
   O     -0.013998     -0.060709      3.579882
   H      0.807748      0.251418      3.970308
   H     -0.585543      0.712276      3.549037
