   11
 0030.xyz Energy 0.00466354
   N      0.064950      0.144760      0.669478
   C     -0.074343     -0.165718     -0.766343
   H      0.736035     -0.486824      1.126080
   H     -0.833030      0.050626      1.162074
   H      0.397886      1.107114      0.814209
   H     -0.428773     -1.194561     -0.852653
   H      0.906906     -0.048287     -1.230153
   H     -0.795716      0.535002     -1.191063
   O     -0.060268      0.013789      3.821538
   H      0.561554     -0.621103      4.189467
   H      0.395140      0.402214      3.068642
