   11
 0031.xyz Energy -0.0105548
   N     -0.672369      0.126712     -0.072382
   C      0.769657     -0.145033      0.082858
   H     -0.846813      1.119596     -0.276068
   H     -1.192467     -0.109740      0.782878
   H     -1.076518     -0.422796     -0.842202
   H      1.137119      0.464525      0.910503
   H      1.263004      0.124921     -0.852821
   H      0.887868     -1.209118      0.296217
   O     -0.065406     -0.002284      3.058250
   H      0.487777      0.749205      3.291434
   H      0.550480     -0.712946      2.856344
