   11
 0033.xyz Energy -0.00846971
   N      0.166571     -0.082768      0.662404
   C     -0.190665      0.094755     -0.758248
   H      0.425543      0.812011      1.098340
   H      0.964699     -0.722356      0.771021
   H     -0.618371     -0.473334      1.200219
   H      0.678611      0.509721     -1.271814
   H     -1.039116      0.780026     -0.806154
   H     -0.454115     -0.885008     -1.161276
   O      0.021612     -0.061598      4.175012
   H      0.547578      0.743529      4.190864
   H     -0.890642      0.234275      4.248317
