   11
 0035.xyz Energy 0.00815529
   N      0.355735     -0.264184      0.526341
   C     -0.407198      0.302419     -0.602498
   H      0.942597      0.449592      0.977844
   H      0.976006     -1.023600      0.215807
   H     -0.270171     -0.650343      1.245397
   H      0.309490      0.693442     -1.327100
   H     -1.042680      1.098556     -0.209956
   H     -1.006466     -0.500100     -1.036797
   O      0.002955     -0.033336      3.996269
   H     -0.661826     -0.109432      3.305330
   H      0.614920      0.638610      3.681454
