   11
 0036.xyz Energy -0.00147717
   N      0.070081     -0.004419     -0.684430
   C     -0.080209      0.005050      0.783462
   H      0.637013     -0.803186     -0.997952
   H      0.530304      0.852186     -1.019546
   H     -0.842632     -0.069365     -1.154171
   H      0.917482      0.075109      1.220829
   H     -0.572193     -0.924911      1.074813
   H     -0.688057      0.871391      1.051321
   O      0.060582      0.024731      3.957909
   H     -0.313978     -0.654707      3.389411
   H     -0.647708      0.262125      4.563789
