   11
 0038.xyz Energy -0.00722688
   N      0.185664     -0.160588      0.642740
   C     -0.212538      0.183814     -0.735738
   H     -0.141868     -1.099891      0.903832
   H     -0.206069      0.503926      1.323069
   H      1.208364     -0.148084      0.751584
   H     -1.302556      0.153340     -0.785922
   H      0.232135     -0.554203     -1.406079
   H      0.162557      1.186155     -0.951121
   O      0.062575      0.019168      4.338229
   H     -0.719995      0.577805      4.363311
   H     -0.273328     -0.882080      4.344800
