   11
 0039.xyz Energy 0.00294437
   N     -0.529246      0.400307      0.181736
   C      0.605816     -0.458238     -0.208028
   H     -1.171205     -0.092450      0.816415
   H     -1.073207      0.697793     -0.638928
   H     -0.208079      1.249782      0.664604
   H      0.201446     -1.337604     -0.712793
   H      1.140171     -0.738764      0.701659
   H      1.246521      0.118840     -0.877544
   O      0.030312      0.056912      4.391335
   H     -0.473376     -0.192441      3.610795
   H     -0.007804     -0.710973      4.969281
