   11
 0044.xyz Energy -0.0287533
   N     -0.472000     -0.450000      0.525000
   C      0.152000      0.220000     -0.624000
   H     -0.367000     -1.469000      0.490000
   H     -1.469000     -0.229000      0.616000
   H     -0.026000     -0.143000      1.422000
   H     -0.346000     -0.132000     -1.529000
   H      1.211000     -0.044000     -0.632000
   H      0.018000      1.297000     -0.498000
   O      0.575800      0.272140      2.848980
   H      0.684800      1.158140      3.256980
   H      0.945800     -0.280860      3.570980
