    9
 0000.xyz Energy 0.132438
   N     -0.620540     -0.154075     -0.254098
   C      0.710332      0.176364      0.290853
   H     -0.558953     -0.882420     -0.977603
   H     -1.065693      0.669109     -0.680814
   H     -1.251002     -0.500586      0.480999
   H      1.328813      0.536106     -0.533558
   H      1.127831     -0.733138      0.727044
   H      0.577879      0.950452      1.049151
  Li      0.000000      0.000000      3.540000
