    9
 0002.xyz Energy 0.12404
   N     -0.672132     -0.147002      0.002149
   C      0.769386      0.168259     -0.002456
   H     -0.875117     -0.964288      0.592553
   H     -1.012742     -0.357419     -0.945263
   H     -1.226833      0.640597      0.362584
   H      1.300230     -0.701792     -0.393355
   H      1.067998      0.381055      1.025800
   H      0.918590      1.039651     -0.642914
  Li      0.000000      0.000000      4.060000
