    9
 0004.xyz Energy 0.0995994
   N      0.048670      0.042950     -0.684954
   C     -0.055698     -0.049162      0.784061
   H      1.006124     -0.152485     -1.005616
   H     -0.204485      0.981673     -1.020500
   H     -0.576229     -0.630124     -1.147979
   H      0.627415      0.685699      1.214086
   H      0.224138     -1.063226      1.075825
   H     -1.089588      0.167439      1.059614
  Li      0.000000      0.000000      4.840000
