    9
 0007.xyz Energy 0.138701
   N      0.581274      0.323870     -0.174940
   C     -0.665386     -0.370723      0.200243
   H      0.388572      1.257825     -0.560080
   H      1.103900     -0.202785     -0.887242
   H      1.201231      0.445677      0.636686
   H     -1.276609     -0.468722     -0.698861
   H     -1.171097      0.234949      0.954682
   H     -0.394800     -1.349994      0.599726
  Li      0.000000      0.000000      3.400000
