    9
 0008.xyz Energy 0.116348
   N      0.443711     -0.354819     -0.388070
   C     -0.507914      0.406167      0.444210
   H      0.788582      0.210447     -1.175011
   H      0.006158     -1.198452     -0.781404
   H      1.261409     -0.656340      0.158166
   H     -1.348271      0.695785     -0.189437
   H      0.013730      1.284114      0.830030
   H     -0.835229     -0.244770      1.257179
  Li      0.000000      0.000000      4.100000
