    9
 0010.xyz Energy 0.115249
   N     -0.534879     -0.041578      0.430755
   C      0.612267      0.047606     -0.493086
   H     -1.315115      0.550839      0.117686
   H     -0.276894      0.262092      1.378968
   H     -0.886564     -1.005686      0.499551
   H      0.937379      1.089259     -0.522182
   H      0.275842     -0.286294     -1.476494
   H      1.402410     -0.599704     -0.107809
  Li      0.000000      0.000000      4.840000
