    9
 0011.xyz Energy 0.105597
   N      0.021138      0.676881     -0.121491
   C     -0.024191     -0.774817      0.139082
   H      0.686531      1.149371      0.504402
   H     -0.899885      1.112068      0.020664
   H      0.311216      0.875226     -1.088152
   H     -0.336748     -0.918520      1.175057
   H      0.977435     -1.175552     -0.027999
   H     -0.744021     -1.215994     -0.553003
  Li      0.000000      0.000000      4.780000
