    9
 0012.xyz Energy 0.107204
   N      0.684375     -0.065877      0.025806
   C     -0.783399      0.075400     -0.029529
   H      0.960227     -0.912674      0.540176
   H      1.120743      0.737908      0.496330
   H      1.090451     -0.130394     -0.916988
   H     -1.151690      0.138501      0.996126
   H     -1.184624     -0.803737     -0.537365
   H     -1.010388      0.987366     -0.585019
  Li      0.000000      0.000000      4.800000
