    9
 0013.xyz Energy 0.108639
   N      0.055635      0.031958      0.685024
   C     -0.063677     -0.036572     -0.784142
   H      0.355526      0.966117      0.993489
   H      0.744272     -0.646050      1.037109
   H     -0.842018     -0.172098      1.143827
   H      0.916166      0.188148     -1.209578
   H     -0.805034      0.702505     -1.093843
   H     -0.383262     -1.046934     -1.046451
  Li      0.000000      0.000000      5.300000
