    9
 0015.xyz Energy 0.142451
   N      0.177255      0.155328      0.646397
   C     -0.202889     -0.177800     -0.739929
   H      1.018708      0.746097      0.672588
   H      0.376904     -0.692020      1.194139
   H     -0.574310      0.665643      1.128734
   H      0.631259     -0.715134     -1.194962
   H     -0.400807      0.758054     -1.266016
   H     -1.097308     -0.802456     -0.700001
  Li      0.000000      0.000000      4.060000
