    9
 0016.xyz Energy 0.126981
   N     -0.205116      0.411943      0.511473
   C      0.234790     -0.471538     -0.585488
   H     -0.890094      1.105067      0.182653
   H      0.586601      0.927854      0.917552
   H     -0.646937     -0.124029      1.270055
   H      0.692550      0.153501     -1.354492
   H     -0.645957     -0.987844     -0.972106
   H      0.956419     -1.180174     -0.174561
  Li      0.000000      0.000000      4.440000
