    9
 0018.xyz Energy 0.0979188
   N     -0.115434      0.107515     -0.669694
   C      0.132150     -0.123070      0.766591
   H      0.731458     -0.062341     -1.227959
   H     -0.414480      1.075370     -0.847763
   H     -0.852027     -0.514767     -1.027627
   H      0.919118      0.563503      1.084217
   H      0.444452     -1.161926      0.889088
   H     -0.799112      0.072601      1.301603
  Li      0.000000      0.000000      4.940000
