    9
 0019.xyz Energy 0.110498
   N      0.050877     -0.191274      0.658939
   C     -0.058233      0.218938     -0.754285
   H      0.771825     -0.913856      0.784828
   H     -0.837120     -0.576186      1.007053
   H      0.300963      0.603755      1.261687
   H     -0.324258     -0.663861     -1.338650
   H      0.910699      0.616403     -1.062433
   H     -0.835207      0.982878     -0.821219
  Li      0.000000      0.000000      5.200000
