    9
 0021.xyz Energy 0.126105
   N     -0.345645      0.553558     -0.217893
   C      0.395657     -0.633648      0.249433
   H     -0.210050      1.353030      0.414718
   H     -1.355964      0.368004     -0.269909
   H     -0.035761      0.844097     -1.154631
   H      0.022880     -0.890441      1.242751
   H      1.455443     -0.373845      0.282865
   H      0.211982     -1.442693     -0.460132
  Li      0.000000      0.000000      3.820000
