    9
 0022.xyz Energy 0.130262
   N     -0.661593     -0.159586     -0.101001
   C      0.757323      0.182675      0.115602
   H     -0.781325     -0.752487     -0.932789
   H     -1.233983      0.684016     -0.237325
   H     -1.050561     -0.670983      0.702178
   H      1.109448      0.720732     -0.766491
   H      1.308550     -0.749565      0.252859
   H      0.817301      0.809193      1.007594
  Li      0.000000      0.000000      3.760000
