    9
 0023.xyz Energy 0.124463
   N      0.245463     -0.285676      0.575771
   C     -0.280969      0.327006     -0.659086
   H      1.255792     -0.464184      0.504302
   H     -0.214275     -1.184186      0.773760
   H      0.095843      0.324541      1.390122
   H     -0.092753     -0.365282     -1.481825
   H      0.243812      1.271802     -0.813119
   H     -1.351418      0.490540     -0.520635
  Li      0.000000      0.000000      4.600000
