    9
 0024.xyz Energy 0.127034
   N     -0.001821     -0.132840      0.675074
   C      0.002098      0.152059     -0.772752
   H      0.936554     -0.022444      1.081279
   H     -0.310795     -1.094941      0.866849
   H     -0.634326      0.501771      1.180173
   H      0.688129     -0.550565     -1.249478
   H      0.337171      1.181997     -0.909553
   H     -1.016426      0.018236     -1.142177
  Li      0.000000      0.000000      4.560000
