    9
 0026.xyz Energy 0.110832
   N      0.295696     -0.616245      0.078614
   C     -0.338480      0.705409     -0.090003
   H      0.806032     -0.897875     -0.768723
   H     -0.403087     -1.344821      0.275490
   H      0.967266     -0.613007      0.857654
   H     -1.035939      0.636782     -0.926918
   H      0.450991      1.430900     -0.295329
   H     -0.861007      0.945883      0.837851
  Li      0.000000      0.000000      4.680000
