    9
 0029.xyz Energy 0.125681
   N     -0.550512      0.399229     -0.104534
   C      0.630172     -0.456984      0.119665
   H     -0.309776      1.396388     -0.030657
   H     -1.289022      0.207273      0.585131
   H     -0.952362      0.246267     -1.038899
   H      1.007990     -0.248889      1.122430
   H      1.373385     -0.206532     -0.639723
   H      0.310719     -1.496886      0.028414
  Li      0.000000      0.000000      3.920000
