    9
 0030.xyz Energy 0.104692
   N      0.226993      0.097956     -0.642070
   C     -0.259843     -0.112141      0.734968
   H     -0.323993     -0.443471     -1.321046
   H      1.209305     -0.190623     -0.740378
   H      0.166672      1.088104     -0.913894
   H     -0.170362     -1.176094      0.962091
   H     -1.301769      0.211338      0.773835
   H      0.362073      0.485795      1.403897
  Li      0.000000      0.000000      4.580000
