    9
 0031.xyz Energy 0.103301
   N      0.370590      0.051390     -0.577406
   C     -0.424209     -0.058839      0.660951
   H      0.372972     -0.833690     -1.101206
   H      1.349390      0.293329     -0.374194
   H     -0.005012      0.778625     -1.200279
   H      0.022501     -0.842420      1.275798
   H     -1.447160     -0.315939      0.379470
   H     -0.387630      0.907092      1.168310
  Li      0.000000      0.000000      4.660000
