    8
 0007.xyz Energy -0.173269
   C      0.002000      0.031000      0.159000
   C     -0.074000      0.029000      1.669000
   O      0.908000     -0.632000      2.223000
   O     -1.057000      0.385000      2.288000
   H      0.968000      0.420000     -0.172000
   H     -0.110000     -0.986000     -0.227000
   H     -0.787000      0.656000     -0.265000
   K      0.058253     -0.021126      5.348832
