    8
 0020.xyz Energy -0.119471
   C     -1.156298     -0.729873     -0.497075
   C      0.088558      0.056927      0.044703
   O      0.067515      0.379727      1.294573
   O      1.007107      0.298723     -0.833226
   H     -1.885650     -0.912944      0.301435
   H     -1.626017     -0.151703     -1.306747
   H     -0.823081     -1.685871     -0.927398
   K      0.000000      0.000000      5.120000
