    8
 0023.xyz Energy -0.103302
   C      0.682195     -0.103892     -1.280875
   C     -0.058607      0.010066      0.097700
   O     -1.241779      0.526243      0.075661
   O      0.608381     -0.429694      1.114899
   H      0.054809      0.271879     -2.098353
   H      1.620486      0.468922     -1.236394
   H      0.948246     -1.155329     -1.464833
   K      0.000000      0.000000      5.880000
