    8
 0024.xyz Energy -0.0897208
   C     -1.387089      0.439076     -0.004496
   C      0.108716     -0.034940      0.006441
   O      0.658937     -0.181010      1.165208
   O      0.630111     -0.226776     -1.161592
   H     -1.768153      0.566768      1.016078
   H     -1.461806      1.389952     -0.552891
   H     -1.998589     -0.299446     -0.543752
   K      0.000000      0.000000      6.260000
