    8
 0026.xyz Energy -0.0880619
   C     -0.116822     -0.296590      1.419581
   C      0.015239      0.022695     -0.111059
   O      1.214438      0.147239     -0.572829
   O     -1.106440      0.128619     -0.746333
   H      0.869674     -0.387452      1.890385
   H     -0.691759      0.504034      1.908390
   H     -0.681750     -1.231672      1.548514
   K      0.000000      0.000000      5.680000
