    8
 0027.xyz Energy -0.102285
   C     -0.759416      1.234493     -0.127031
   C      0.060112     -0.097226      0.003892
   O      0.349336     -0.706969     -1.096737
   O      0.356148     -0.440276      1.215352
   H     -0.961429      1.471875     -1.178662
   H     -1.707549      1.131842      0.421597
   H     -0.196574      2.055331      0.341560
   K      0.000000      0.000000      5.680000
