    8
 0028.xyz Energy -0.0955651
   C     -1.026082      1.024915      0.116308
   C      0.080126     -0.081556     -0.003136
   O      0.490383     -0.608530      1.101766
   O      0.463299     -0.343647     -1.210382
   H     -1.313328      1.184534      1.162778
   H     -0.647427      1.963780     -0.314550
   H     -1.905442      0.724958     -0.472670
   K      0.000000      0.000000      5.860000
