    8
 0031.xyz Energy -0.111195
   C     -1.337729     -0.540718      0.186892
   C      0.103230      0.045042     -0.019906
   O      0.325969      0.646410     -1.140425
   O      0.917357     -0.144349      0.967152
   H     -1.977088     -0.331092     -0.679344
   H     -1.267832     -1.627208      0.345440
   H     -1.780655     -0.104660      1.094534
   K      0.000000      0.000000      5.040000
