    8
 0032.xyz Energy -0.102009
   C     -1.217394      0.796521     -0.018141
   C      0.095156     -0.063012      0.007500
   O      0.563129     -0.366483      1.171857
   O      0.568299     -0.373487     -1.155556
   H     -1.569805      1.009282      0.998533
   H     -1.022781      1.739202     -0.551024
   H     -1.994477      0.256879     -0.579454
   K      0.000000      0.000000      5.620000
