    8
 0033.xyz Energy -0.104373
   C     -0.646432      0.301753     -1.268028
   C      0.056030     -0.021539      0.097356
   O      1.334318      0.153482      0.143915
   O     -0.734068     -0.434274      1.034560
   H      0.078105      0.659703     -2.009651
   H     -1.146728     -0.604177     -1.641498
   H     -1.424177      1.062587     -1.105586
   K      0.000000      0.000000      5.780000
