    8
 0034.xyz Energy -0.0935392
   C     -0.738991     -1.238376     -0.192721
   C      0.053764      0.099131      0.019078
   O     -0.517553      0.998984      0.747557
   O      1.204575      0.151696     -0.568992
   H     -1.695121     -1.219804      0.344455
   H     -0.917469     -1.387337     -1.268100
   H     -0.127645     -2.082866      0.158329
   K      0.000000      0.000000      5.760000
