    8
 0036.xyz Energy -0.108411
   C      1.394740     -0.205958      0.359313
   C     -0.110851      0.010597     -0.026102
   O     -0.895011     -1.004757      0.118698
   O     -0.400907      1.196601     -0.452974
   H      1.565561     -1.225416      0.726210
   H      2.025311     -0.015488     -0.521929
   H      1.680991      0.523611      1.131280
   K      0.000000      0.000000      4.560000
