    8
 0037.xyz Energy -0.104466
   C     -1.438755     -0.213505     -0.034982
   C      0.112368      0.021289     -0.001313
   O      0.584226      0.878928     -0.843111
   O      0.752836     -0.681085      0.875857
   H     -1.918097      0.423328     -0.788481
   H     -1.640204     -1.271975     -0.257569
   H     -1.860243     -0.001363      0.958742
   K      0.000000      0.000000      5.260000
