    8
 0038.xyz Energy -0.0987704
   C      0.600832      1.097015     -0.743225
   C     -0.044728     -0.090110      0.054416
   O      0.078512     -1.266733     -0.462488
   O     -0.637236      0.247708      1.153402
   H      1.097366      0.737574     -1.652809
   H     -0.181622      1.824062     -1.007147
   H      1.326607      1.615527     -0.099379
   K      0.000000      0.000000      5.920000
