    8
 0040.xyz Energy -0.118995
   C      1.196404     -0.827870     -0.008530
   C     -0.092732      0.066641      0.006430
   O     -0.405097      0.609244      1.135513
   O     -0.706898      0.159756     -1.128068
   H      1.673230     -0.849606      0.979017
   H      0.925188     -1.849143     -0.315009
   H      1.901402     -0.437124     -0.757155
   K      0.000000      0.000000      4.920000
