    8
 0042.xyz Energy -0.103397
   C     -0.435472     -1.306882     -0.468237
   C      0.036626      0.103739      0.031276
   O      0.773379      0.786034     -0.780198
   O     -0.368771      0.428219      1.215895
   H     -0.069448     -1.509403     -1.482189
   H     -0.065861     -2.078524      0.223458
   H     -1.534556     -1.349785     -0.450454
   K      0.000000      0.000000      5.680000
