    8
 0043.xyz Energy -0.0960538
   C      1.439597     -0.208159     -0.032449
   C     -0.113235      0.015716     -0.003525
   O     -0.705207      0.099683     -1.147788
   O     -0.632511      0.094005      1.178498
   H      1.808897     -0.280087     -1.062755
   H      1.935680      0.626598      0.484821
   H      1.684678     -1.127855      0.519130
   K      0.000000      0.000000      5.940000
