    8
 0044.xyz Energy -0.07333
   C      0.116476     -0.929972      1.112838
   C     -0.015185      0.072107     -0.087472
   O     -1.184172      0.177422     -0.625243
   O      1.076534      0.686704     -0.408995
   H     -0.847011     -1.402285      1.340214
   H      0.860283     -1.700704      0.861425
   H      0.488334     -0.391361      1.997012
   K      0.000000      0.000000      6.700000
