    8
 0045.xyz Energy -0.132175
   C     -0.074297      0.524724     -1.354979
   C      0.007016     -0.035581      0.108472
   O      0.378574      0.795157      1.024246
   O     -0.309452     -1.283330      0.234666
   H      0.191427      1.588460     -1.385697
   H      0.606618     -0.049260     -2.001030
   H     -1.093538      0.381154     -1.743155
   K      0.000000      0.000000      4.780000
