    8
 0047.xyz Energy -0.102289
   C      0.212091      1.439041      0.031629
   C     -0.017416     -0.112984      0.003577
   O     -0.125996     -0.700680      1.147974
   O     -0.070827     -0.636598     -1.177918
   H      0.231262      1.816665      1.061251
   H      1.162641      1.673837     -0.470180
   H     -0.589395      1.935401     -0.535284
   K      0.000000      0.000000      5.580000
