    8
 0050.xyz Energy -0.101672
   C      1.114661     -0.604372      0.713504
   C     -0.089431      0.050014     -0.050816
   O     -0.959675      0.673989      0.670399
   O     -0.076068     -0.112771     -1.333889
   H      1.047711     -0.414658      1.791749
   H      1.117834     -1.688206      0.524349
   H      2.058608     -0.199873      0.319182
   K      0.000000      0.000000      5.180000
