    8
 0051.xyz Energy -0.0843677
   C     -0.437369      0.099342      1.384075
   C      0.040002     -0.009077     -0.106766
   O      1.306823     -0.170400     -0.296392
   O     -0.900888      0.078398     -0.989959
   H      0.407239      0.001857      2.077055
   H     -0.934942      1.068856      1.535566
   H     -1.180874     -0.685932      1.585789
   K      0.000000      0.000000      5.920000
