    8
 0052.xyz Energy -0.0999306
   C     -1.100702      0.814331      0.492080
   C      0.083422     -0.068979     -0.036933
   O      0.007449     -1.336157      0.198245
   O      1.015765      0.579917     -0.655502
   H     -1.859751      0.199311      0.990761
   H     -0.707461      1.564591      1.194189
   H     -1.552798      1.358617     -0.350241
   K      0.000000      0.000000      4.980000
