    8
 0053.xyz Energy -0.0962986
   C     -1.052087     -1.004834     -0.015615
   C      0.083804      0.077697     -0.004643
   O      0.807230      0.165358     -1.070378
   O      0.170453      0.768375      1.085500
   H     -1.077798     -1.540302     -0.972537
   H     -0.882394     -1.716371      0.806216
   H     -2.020938     -0.517101      0.167659
   K      0.000000      0.000000      5.840000
