    8
 0056.xyz Energy -0.110128
   C     -1.185024     -0.834307     -0.128349
   C      0.092582      0.067027      0.004179
   O      0.545501      0.589349     -1.086171
   O      0.555856      0.185644      1.205954
   H     -1.531166     -0.877926     -1.168239
   H     -0.952174     -1.847881      0.230725
   H     -1.981443     -0.433086      0.515765
   K      0.000000      0.000000      5.340000
