    8
 0057.xyz Energy -0.0812958
   C     -0.647515     -0.543677      1.184045
   C      0.056171      0.042767     -0.089985
   O      1.293764      0.386182      0.041358
   O     -0.692596      0.119213     -1.141868
   H      0.047595     -0.593830      2.031036
   H     -1.509488      0.088274      1.445056
   H     -1.034249     -1.547949      0.955968
   K      0.000000      0.000000      6.140000
