    6
 0000.xyz Energy -0.161539
   H      0.539767      0.828360      0.266526
   N     -0.000003     -0.000005     -0.000001
   H      0.588920     -0.833250      0.085757
   H     -0.812236     -0.091129      0.616863
   H     -0.316410      0.096081     -0.969126
  Cl      0.000000      0.000000      3.400000
