    6
 0001.xyz Energy -0.152737
   H     -0.683359     -0.013815     -0.762492
   N      0.000004      0.000000      0.000004
   H      0.196611     -0.959224      0.299532
   H      0.865446      0.440193     -0.325246
   H     -0.378750      0.532845      0.788147
  Cl      0.000000      0.000000      3.680000
