    6
 0003.xyz Energy -0.148057
   H      0.855437     -0.384101     -0.411410
   N     -0.000005      0.000002      0.000002
   H     -0.800018     -0.576629     -0.275604
   H      0.083433      0.002575      1.020580
   H     -0.138788      0.958125     -0.333597
  Cl      0.000000      0.000000      3.920000
