    6
 0005.xyz Energy -0.165791
   H      0.052491     -0.029096     -1.022234
   N     -0.000000      0.000000      0.000006
   H      0.652361     -0.683382      0.394842
   H      0.248129      0.937783      0.327943
   H     -0.952977     -0.225307      0.299372
  Cl      0.000000      0.000000      3.260000
