    6
 0007.xyz Energy -0.157167
   H     -0.747783      0.652573      0.252058
   N      0.000004     -0.000004     -0.000001
   H     -0.359140     -0.958458      0.029398
   H      0.332880      0.210937     -0.945118
   H      0.773986      0.094997      0.663681
  Cl      0.000000      0.000000      3.520000
