    6
 0009.xyz Energy -0.152668
   H     -0.880200      0.474750      0.220058
   N      0.000005     -0.000003     -0.000001
   H      0.462054     -0.282338      0.869067
   H     -0.192466     -0.829160     -0.569212
   H      0.610544      0.636785     -0.519896
  Cl      0.000000      0.000000      3.720000
