    6
 0010.xyz Energy -0.15162
   H     -0.659237     -0.724681     -0.298007
   N      0.000004      0.000004      0.000002
   H      0.132199      0.674228     -0.759228
   H     -0.371784      0.481838      0.823505
   H      0.898773     -0.431439      0.233707
  Cl      0.000000      0.000000      3.720000
