    6
 0011.xyz Energy -0.14672
   H     -0.828526      0.583634      0.146563
   N      0.000005     -0.000003     -0.000001
   H     -0.260151     -0.834024     -0.534052
   H      0.704542      0.531699     -0.519104
   H      0.384072     -0.281264      0.906604
  Cl      0.000000      0.000000      3.880000
