    6
 0013.xyz Energy -0.14994
   H      0.991070      0.093790     -0.239894
   N     -0.000005     -0.000001      0.000001
   H     -0.228460     -0.990170      0.125920
   H     -0.190355      0.507389      0.868835
   H     -0.572180      0.388999     -0.754879
  Cl      0.000000      0.000000      3.780000
