    6
 0014.xyz Energy -0.165794
   H      0.681238      0.680440      0.348542
   N     -0.000004     -0.000004     -0.000002
   H     -0.941618      0.282253      0.286663
   H      0.048447     -0.038577     -1.022114
   H      0.211985     -0.924065      0.386935
  Cl      0.000000      0.000000      3.260000
