    6
 0015.xyz Energy -0.16253
   H     -0.921058     -0.363396     -0.261074
   N      0.000005      0.000002      0.000001
   H     -0.111232      0.893957      0.486779
   H      0.468328     -0.669059      0.617722
   H      0.563893      0.138470     -0.843447
  Cl      0.000000      0.000000      3.400000
