    6
 0017.xyz Energy -0.149368
   H      1.016746      0.120426      0.017003
   N     -0.000006     -0.000001     -0.000000
   H     -0.226283     -0.997719      0.042878
   H     -0.413908      0.478777      0.804987
   H     -0.376478      0.398525     -0.864866
  Cl      0.000000      0.000000      3.760000
