    6
 0018.xyz Energy -0.161647
   H      0.446837     -0.919518      0.058204
   N     -0.000002      0.000005     -0.000000
   H      0.481688      0.653649      0.623863
   H      0.053112      0.344959     -0.962670
   H     -0.981603     -0.079161      0.280608
  Cl      0.000000      0.000000      3.400000
