    6
 0019.xyz Energy -0.157743
   H     -0.032878     -1.010862      0.160132
   N      0.000000      0.000006     -0.000001
   H     -0.930243      0.400063      0.151933
   H      0.665638      0.427124      0.650418
   H      0.297480      0.183598     -0.962470
  Cl      0.000000      0.000000      3.500000
