    6
 0020.xyz Energy -0.146974
   H      0.565235      0.741773     -0.422902
   N     -0.000003     -0.000004      0.000002
   H      0.430647     -0.297584      0.880042
   H     -0.943593      0.352680      0.183853
   H     -0.052247     -0.796812     -0.641024
  Cl      0.000000      0.000000      3.860000
