    6
 0021.xyz Energy -0.155929
   H      0.769862     -0.611943     -0.285311
   N     -0.000004      0.000003      0.000002
   H      0.375199      0.906627      0.292812
   H     -0.639729      0.133832     -0.788282
   H     -0.505275     -0.428562      0.780759
  Cl      0.000000      0.000000      3.600000
