    6
 0024.xyz Energy -0.162069
   H      0.209303      0.196531     -0.982920
   N     -0.000001     -0.000001      0.000005
   H      0.319067     -0.944242      0.234713
   H      0.481782      0.680662      0.594254
   H     -1.010136      0.067064      0.153879
  Cl      0.000000      0.000000      3.380000
