    6
 0026.xyz Energy -0.143237
   H     -0.214444     -0.944372     -0.332776
   N      0.000001      0.000005      0.000002
   H     -0.805478      0.610659     -0.163666
   H      0.207358     -0.030200      1.002319
   H      0.812549      0.363841     -0.505902
  Cl      0.000000      0.000000      4.020000
