    6
 0028.xyz Energy -0.151186
   H     -0.433134     -0.391118      0.841420
   N      0.000002      0.000002     -0.000005
   H      0.470011      0.878814      0.235081
   H      0.684716     -0.664463     -0.371759
   H     -0.721626      0.176738     -0.704678
  Cl      0.000000      0.000000      3.740000
