    6
 0029.xyz Energy -0.15057
   H      0.635992     -0.191597      0.779339
   N     -0.000003      0.000001     -0.000004
   H      0.456464     -0.248893     -0.882145
   H     -0.853209     -0.555147      0.111345
   H     -0.239198      0.995623     -0.008479
  Cl      0.000000      0.000000      3.720000
