    6
 0040.xyz Energy -0.199727
   H      0.193000     -0.157000     -2.347000
   N      0.655000      0.490000     -1.711000
   H      0.288000      0.215000     -0.752000
   H      1.661000      0.358000     -1.637000
   H      0.367000      1.460000     -1.817000
  Cl     -0.298560     -0.223720      0.780160
