    9
 0002.xyz Energy -0.235607
   N     -0.295000     -0.467000      0.446000
   C      0.075000      0.663000     -0.389000
   H      0.224000     -0.372000      1.381000
   H      0.031000     -1.388000      0.157000
   H     -1.257000     -0.502000      0.783000
   H      1.155000      0.634000     -0.546000
   H     -0.218000      1.580000      0.125000
   H     -0.455000      0.567000     -1.339000
   F      0.767000     -0.484000      2.674000
