    9
 0021.xyz Energy -0.139596
   N      0.051658     -0.091893     -0.679898
   C     -0.059123      0.105198      0.778273
   H      0.985615      0.167988     -1.023301
   H     -0.635302      0.480092     -1.188621
   H     -0.111052     -1.073953     -0.938745
   H      0.122818      1.161036      0.987294
   H      0.691748     -0.525163      1.258482
   H     -1.067182     -0.186568      1.079044
   F      0.000000      0.000000      3.660000
