    9
 0022.xyz Energy -0.165257
   N     -0.459601     -0.008505      0.511927
   C      0.526092      0.009739     -0.586007
   H     -1.418373     -0.107490      0.153184
   H     -0.423314      0.859455      1.062572
   H     -0.288017     -0.791359      1.156611
   H      0.291408      0.858271     -1.231378
   H      0.438180     -0.932974     -1.129445
   H      1.517955      0.116231     -0.142565
   F      0.000000      0.000000      3.700000
