    9
 0023.xyz Energy -0.127764
   N      0.595313     -0.217530     -0.267689
   C     -0.681449      0.248996      0.306431
   H      0.816475     -1.174181      0.038324
   H      1.377278      0.386957      0.016928
   H      0.564958     -0.220698     -1.295788
   H     -0.585606      0.229509      1.393639
   H     -1.467083     -0.429901     -0.030674
   H     -0.858517      1.264142     -0.053983
   F      0.000000      0.000000      4.140000
