    9
 0025.xyz Energy -0.149375
   N      0.103758      0.186463      0.654095
   C     -0.118760     -0.213435     -0.748741
   H      0.669607      1.043158      0.714318
   H      0.596842     -0.547624      1.179324
   H     -0.785700      0.368433      1.137490
   H      0.857259     -0.391232     -1.204111
   H     -0.642843      0.602808     -1.249585
   H     -0.721871     -1.123389     -0.744930
   F      0.000000      0.000000      4.160000
