    9
 0026.xyz Energy -0.140934
   N     -0.020364      0.167200      0.667086
   C      0.023313     -0.191405     -0.763604
   H      0.481992     -0.522129      1.241719
   H     -0.988007      0.211921      1.012842
   H      0.411576      1.085120      0.836702
   H     -0.447544     -1.169660     -0.877177
   H      1.071143     -0.222275     -1.068332
   H     -0.523974      0.574349     -1.316661
   F      0.000000      0.000000      4.380000
