    9
 0027.xyz Energy -0.174283
   N     -0.446052     -0.109120      0.512353
   C      0.510599      0.124916     -0.586477
   H     -0.374893      0.621103      1.233081
   H     -0.276108     -1.014002      0.970814
   H     -1.416054     -0.112875      0.170298
   H      1.515935      0.117405     -0.161235
   H      0.279089      1.095273     -1.029842
   H      0.386192     -0.679046     -1.314448
   F      0.000000      0.000000      3.540000
