    9
 0032.xyz Energy -0.118572
   N      0.155592     -0.038406     -0.669097
   C     -0.178101      0.043976      0.765909
   H      0.788344      0.721805     -0.950954
   H     -0.687620      0.027824     -1.254321
   H      0.620215     -0.927707     -0.895347
   H     -0.665833      1.004785      0.940698
   H      0.753292     -0.031945      1.330270
   H     -0.848290     -0.785082      1.001035
   F      0.000000      0.000000      4.320000
