    9
 0033.xyz Energy -0.113279
   N     -0.047013     -0.238041     -0.643817
   C      0.053819      0.272496      0.736967
   H      0.477650      0.353629     -1.301383
   H     -1.024341     -0.264259     -0.963229
   H      0.328752     -1.192555     -0.718810
   H     -0.358905      1.282974      0.750335
   H      1.109344      0.275807      1.015566
   H     -0.520494     -0.394771      1.382484
   F      0.000000      0.000000      4.520000
