    9
 0035.xyz Energy -0.165934
   N     -0.489705     -0.242981      0.417760
   C      0.560553      0.278136     -0.478217
   H     -1.131905     -0.871024     -0.083118
   H     -1.052168      0.519035      0.818817
   H     -0.085182     -0.773920      1.200309
   H      0.069918      0.828586     -1.283120
   H      1.119160     -0.574382     -0.869283
   H      1.205703      0.933973      0.109518
   F      0.000000      0.000000      3.620000
