    9
 0036.xyz Energy -0.164391
   N      0.127840      0.146850      0.659899
   C     -0.146330     -0.168087     -0.755384
   H      0.340213      1.145044      0.787357
   H      0.931729     -0.388213      1.013947
   H     -0.679545     -0.076450      1.256712
   H      0.743207      0.089652     -1.333208
   H     -1.005122      0.428014     -1.069870
   H     -0.363307     -1.235794     -0.823919
   F      0.000000      0.000000      3.840000
