    9
 0037.xyz Energy -0.12768
   N      0.151668     -0.007510     -0.671055
   C     -0.173611      0.008610      0.768151
   H      0.699463      0.820093     -0.940745
   H     -0.699994     -0.016229     -1.247663
   H      0.703298     -0.838779     -0.921290
   H     -0.756156      0.909713      0.968756
   H      0.766537      0.017278      1.322955
   H     -0.752017     -0.890313      0.989866
   F      0.000000      0.000000      4.020000
