    9
 0038.xyz Energy -0.14109
   N     -0.437572     -0.088889      0.523454
   C      0.500876      0.101744     -0.599201
   H     -1.110950     -0.840625      0.325484
   H     -0.975866      0.767147      0.711399
   H      0.059154     -0.338335      1.388878
   H     -0.084290      0.363060     -1.482876
   H      1.038763     -0.836520     -0.747859
   H      1.185374      0.908111     -0.329002
   F      0.000000      0.000000      4.320000
