    9
 0039.xyz Energy -0.140674
   N     -0.217374     -0.375911      0.533680
   C      0.248837      0.430293     -0.610900
   H      0.544366     -0.944187      0.926810
   H     -0.971621     -1.018201      0.257172
   H     -0.580184      0.220455      1.289084
   H      0.619469     -0.256476     -1.374161
   H      1.044307      1.087537     -0.254504
   H     -0.600784      1.007258     -0.981076
   F      0.000000      0.000000      4.300000
