    9
 0041.xyz Energy -0.179532
   N      0.044828     -0.148588      0.670289
   C     -0.051307      0.170099     -0.767271
   H      0.169381      0.701800      1.235147
   H      0.842362     -0.768440      0.864201
   H     -0.804022     -0.622047      1.006756
   H      0.874452      0.668054     -1.061544
   H     -0.911971      0.827004     -0.906896
   H     -0.181760     -0.768452     -1.309376
   F      0.000000      0.000000      3.540000
