    9
 0042.xyz Energy -0.131789
   N     -0.101203      0.333285     -0.593341
   C      0.115835     -0.381515      0.679190
   H     -1.083128      0.274400     -0.893499
   H      0.477027     -0.060137     -1.347496
   H      0.137251      1.330216     -0.508566
   H     -0.153523     -1.427989      0.524514
   H     -0.522285      0.080580      1.434856
   H      1.170713     -0.282348      0.942195
   F      0.000000      0.000000      3.920000
