    9
 0043.xyz Energy -0.171194
   N      0.011523     -0.074048      0.683929
   C     -0.013182      0.084751     -0.782889
   H      0.829670     -0.617876      0.988270
   H     -0.828010     -0.562577      1.022166
   H      0.051623      0.837380      1.158914
   H     -0.055532     -0.911968     -1.225997
   H      0.899005      0.607029     -1.077679
   H     -0.899803      0.667107     -1.040838
   F      0.000000      0.000000      3.700000
