    9
 0044.xyz Energy -0.143561
   N      0.193379     -0.655796     -0.076881
   C     -0.221346      0.750688      0.088003
   H      1.198649     -0.773910      0.105378
   H      0.010589     -0.990886     -1.031963
   H     -0.313240     -1.274209      0.570284
   H      0.348720      1.352382     -0.622332
   H     -0.002580      1.045035      1.116235
   H     -1.291824      0.809515     -0.117887
   F      0.000000      0.000000      3.720000
