    9
 0045.xyz Energy -0.142464
   N      0.499148      0.425493      0.207801
   C     -0.571377     -0.487048     -0.237874
   H      0.187331      1.405407      0.191153
   H      1.328139      0.354244     -0.396829
   H      0.797674      0.211991      1.168643
   H     -0.842508     -0.210488     -1.258457
   H     -1.418195     -0.364801      0.440149
   H     -0.180221     -1.505461     -0.197809
   F      0.000000      0.000000      4.000000
