    9
 0046.xyz Energy -0.141674
   N      0.073568     -0.464357      0.502330
   C     -0.084212      0.531535     -0.575022
   H      0.479648     -1.339841      0.146853
   H     -0.830783     -0.695676      0.934211
   H      0.691995     -0.116236      1.246829
   H     -0.747480      0.104795     -1.329711
   H      0.904860      0.733498     -0.990604
   H     -0.517086      1.432519     -0.136135
   F      0.000000      0.000000      4.240000
