    9
 0048.xyz Energy -0.13654
   N      0.058159      0.255818     -0.636042
   C     -0.066563     -0.292826      0.728075
   H      1.023311      0.550350     -0.834716
   H     -0.548782      1.075769     -0.767122
   H     -0.205146     -0.440673     -1.345613
   H      0.225211      0.489908      1.430772
   H      0.598166     -1.155531      0.803139
   H     -1.107791     -0.585427      0.876411
   F      0.000000      0.000000      3.780000
