    9
 0049.xyz Energy -0.128938
   N     -0.394034     -0.130922     -0.548609
   C      0.451049      0.149852      0.627989
   H     -0.752377     -1.094782     -0.531209
   H      0.131725     -0.012023     -1.424577
   H     -1.205285      0.500229     -0.586524
   H      1.289663     -0.548738      0.611142
   H     -0.161060      0.007009      1.520558
   H      0.798235      1.181998      0.551110
   F      0.000000      0.000000      4.060000
