    9
 0050.xyz Energy -0.13247
   N     -0.422046     -0.013492     -0.543203
   C      0.483104      0.015436      0.621807
   H     -1.388499     -0.224416     -0.261745
   H     -0.134596     -0.729435     -1.223407
   H     -0.432574      0.891355     -1.032142
   H      0.449988     -0.967764      1.094889
   H      0.126623      0.790875      1.302525
   H      1.487266      0.242932      0.258932
   F      0.000000      0.000000      3.860000
