    9
 0051.xyz Energy -0.124773
   N     -0.175966      0.112095     -0.655626
   C      0.201421     -0.128303      0.750493
   H     -0.375694      1.106616     -0.825262
   H     -1.016723     -0.420884     -0.914356
   H      0.576996     -0.166408     -1.298590
   H     -0.634153      0.185661      1.378847
   H      1.095135      0.461866      0.962001
   H      0.399585     -1.195700      0.865248
   F      0.000000      0.000000      4.120000
