    9
 0053.xyz Energy -0.149872
   N     -0.111902     -0.054525      0.676668
   C      0.128082      0.062407     -0.774578
   H     -0.719222     -0.855916      0.892709
   H     -0.567446      0.788542      1.050297
   H      0.768182     -0.185187      1.192708
   H     -0.838624      0.198474     -1.262995
   H      0.610571     -0.858156     -1.108539
   H      0.775335      0.926295     -0.937472
   F      0.000000      0.000000      4.160000
