    9
 0054.xyz Energy -0.116525
   N     -0.026061      0.509215     -0.461948
   C      0.029823     -0.582887      0.528795
   H     -0.307113      1.397079     -0.025547
   H     -0.702856      0.303541     -1.208624
   H      0.889235      0.659009     -0.906597
   H     -0.966039     -0.691660      0.962400
   H      0.761455     -0.305935      1.290224
   H      0.332092     -1.492546      0.006371
   F      0.000000      0.000000      4.400000
