    9
 0057.xyz Energy 0.19623
   N     -0.771000      0.071000     -0.533000
   C      0.536000     -0.024000      0.094000
   H     -1.030000     -0.667000     -1.188000
   H     -1.059000      0.988000     -0.875000
   H     -1.515000     -0.085000      0.224000
   H      1.292000      0.135000     -0.677000
   H      0.634000     -1.020000      0.531000
   H      0.603000      0.746000      0.865000
   F     -2.024200     -0.159000      0.568400
