   10
 0000.xyz Energy 0.131769
   H     -0.177425     -0.635342      0.783215
   N      0.000001      0.000003     -0.000004
   H     -0.814549      0.604366     -0.140494
   H      0.820830      0.576121      0.207062
   H      0.171131     -0.545194     -0.849724
   H      0.921935      0.440610      3.833185
   N     -0.000005     -0.000002      3.900000
   H     -0.727371      0.714889      3.808608
   H     -0.103588     -0.690099      3.150610
   H     -0.090906     -0.465366      4.807592
