   10
 0001.xyz Energy 0.144968
   H     -0.256176     -0.919133      0.371662
   N      0.000001      0.000005     -0.000002
   H      1.002167      0.016216     -0.209487
   H     -0.530758      0.181790     -0.856621
   H     -0.215252      0.721057      0.694475
   H     -0.053225      0.005607      4.462595
   N      0.000000     -0.000000      3.439994
   H     -0.786946     -0.533808      3.060195
   H     -0.039797      0.961813      3.090882
   H      0.879963     -0.433612      3.146406
