   10
 0002.xyz Energy 0.145387
   H     -0.711714     -0.688485      0.260799
   N      0.000004      0.000004     -0.000001
   H      0.052330      0.066996     -1.020421
   H     -0.249750      0.913416      0.389677
   H      0.909080     -0.291979      0.369965
   H      0.085013     -1.018844      3.362613
   N     -0.000000      0.000006      3.420000
   H     -0.977941      0.269314      3.280044
   H      0.312794      0.317197      4.342007
   H      0.580141      0.432255      2.695332
