   10
 0005.xyz Energy 0.132081
   H      0.282504      0.197599      0.964215
   N     -0.000002     -0.000001     -0.000005
   H     -0.271240      0.872707     -0.461841
   H      0.783262     -0.424297     -0.505000
   H     -0.794504     -0.645994      0.002700
   H     -0.716172     -0.142069      4.637968
   N      0.000004      0.000001      3.919996
   H     -0.071637     -0.739542      3.215421
   H     -0.139862      0.911077      3.473986
   H      0.927616     -0.029477      4.352680
