   10
 0011.xyz Energy 0.129145
   H      0.379403      0.451553     -0.837089
   N     -0.000002     -0.000002      0.000005
   H      0.744348     -0.112747      0.694061
   H     -0.747107      0.580319      0.391936
   H     -0.376615     -0.919090     -0.248971
   H      0.332127      0.966213      4.068470
   N     -0.000002     -0.000005      4.000000
   H      0.279473     -0.393796      3.097057
   H      0.409290     -0.555996      4.756242
   H     -1.020864     -0.016348      4.078237
