   10
 0014.xyz Energy 0.141949
   H      0.088467     -0.961471      0.341045
   N     -0.000000      0.000005     -0.000002
   H     -0.990314      0.256378     -0.045110
   H      0.488195      0.634787      0.638172
   H      0.413658      0.070233     -0.934080
   H     -0.437101      0.921042      3.655856
   N      0.000002     -0.000005      3.559999
   H      1.016723      0.108700      3.505731
   H     -0.238740     -0.577202      4.371414
   H     -0.340916     -0.452471      2.707006
