   10
 0015.xyz Energy 0.132651
   H      0.713172      0.733294      0.047223
   N     -0.000004     -0.000004     -0.000000
   H      0.450372     -0.903640     -0.170547
   H     -0.512063     -0.035657      0.886043
   H     -0.651427      0.206059     -0.762715
   H     -1.003478      0.140089      3.751775
   N      0.000005     -0.000001      3.900001
   H      0.426960      0.881011      4.200018
   H      0.142227     -0.711649      4.622412
   H      0.434216     -0.309441      3.025783
