   10
 0017.xyz Energy 0.138439
   H      0.166398      0.042839     -1.009476
   N     -0.000001     -0.000000      0.000006
   H      0.796222     -0.452224      0.458269
   H     -0.111804      0.948992      0.368057
   H     -0.850802     -0.539603      0.183073
   H     -0.923787     -0.441083      3.685036
   N      0.000005      0.000002      3.660000
   H      0.093673      0.641173      4.452849
   H      0.724376     -0.721508      3.717070
   H      0.105668      0.521385      2.785047
