   10
 0018.xyz Energy 0.14277
   H      0.133627      0.586966      0.828359
   N     -0.000001     -0.000003     -0.000005
   H     -0.924210      0.181750     -0.401609
   H      0.722006      0.217779     -0.692699
   H      0.068587     -0.986451      0.266012
   H      0.540846     -0.534301      2.874017
   N     -0.000003      0.000003      3.560004
   H     -0.901492     -0.459612      3.716706
   H      0.517818      0.045586      4.442235
   H     -0.157132      0.948286      3.206990
