   10
 0020.xyz Energy 0.133108
   H      0.624244      0.791074     -0.181897
   N     -0.000003     -0.000004      0.000001
   H      0.552349     -0.857919      0.085862
   H     -0.513735      0.163760      0.870524
   H     -0.662810     -0.096855     -0.774502
   H     -0.642177     -0.074366      4.654130
   N      0.000004      0.000000      3.859996
   H     -0.238912     -0.708459      3.160362
   H     -0.079324      0.931874      3.443022
   H      0.960364     -0.149054      4.182546
