   10
 0021.xyz Energy 0.148827
   H      0.172780      0.996740      0.158813
   N     -0.000001     -0.000005     -0.000001
   H      0.582722     -0.552835      0.635055
   H     -0.987362     -0.207384      0.175103
   H      0.231873     -0.236445     -0.968959
   H      0.616607      0.599474      2.784130
   N     -0.000003     -0.000003      3.340003
   H     -0.896598      0.473044      3.484322
   H     -0.155552     -0.882497      2.844465
   H      0.435589     -0.189975      4.247041
