   10
 0022.xyz Energy 0.137344
   H     -0.046665     -1.011252      0.154129
   N      0.000000      0.000006     -0.000001
   H      0.953060      0.328889      0.178873
   H     -0.257337      0.209844     -0.968656
   H     -0.649061      0.472442      0.635665
   H      0.900319     -0.486847      3.711162
   N     -0.000005      0.000003      3.680000
   H      0.019242      0.706002      2.938598
   H     -0.746419     -0.674655      3.489603
   H     -0.173073      0.455462      4.580640
