   10
 0024.xyz Energy 0.135402
   H      0.956244     -0.008770      0.366177
   N     -0.000005      0.000000     -0.000002
   H     -0.573728      0.637772      0.559080
   H      0.010444      0.315347     -0.974166
   H     -0.392888     -0.944350      0.048937
   H      0.998576     -0.170353      3.630364
   N     -0.000005      0.000001      3.780001
   H     -0.119621      0.808063      4.397423
   H     -0.452748      0.187455      2.880872
   H     -0.426131     -0.825178      4.211330
