   10
 0025.xyz Energy 0.129228
   H      0.303045      0.977620      0.031408
   N     -0.000002     -0.000005     -0.000000
   H     -0.246113     -0.311528      0.943856
   H     -0.817152     -0.084554     -0.611282
   H      0.760243     -0.581464     -0.363981
   H     -0.848769     -0.572690      4.033495
   N      0.000005      0.000003      4.020000
   H      0.822924     -0.609329      4.021496
   H      0.006661      0.580521      3.176494
   H      0.019120      0.601454      4.848516
