   10
 0027.xyz Energy 0.130975
   H     -0.954075     -0.363375      0.079147
   N      0.000005      0.000002     -0.000000
   H     -0.031079      1.015346     -0.128817
   H      0.520919     -0.219973      0.853702
   H      0.464163     -0.432026     -0.804027
   H      0.704782     -0.085123      3.202029
   N     -0.000004      0.000000      3.940004
   H     -0.806503     -0.587944      3.711174
   H      0.401381     -0.303252      4.831899
   H     -0.299606      0.976313      4.014842
