   10
 0028.xyz Energy 0.127028
   H      1.008777      0.174896      0.018556
   N     -0.000006     -0.000001     -0.000000
   H     -0.171311     -1.009503     -0.006609
   H     -0.433560      0.414360      0.829990
   H     -0.403830      0.420261     -0.841935
   H     -0.830564      0.263101      4.638057
   N      0.000005     -0.000001      4.099997
   H     -0.007161      0.488906      3.200330
   H      0.841517      0.259255      4.622674
   H     -0.003855     -1.011242      3.938979
