   10
 0029.xyz Energy 0.148414
   H     -0.679889     -0.759209      0.099583
   N      0.000004      0.000004     -0.000001
   H     -0.428227      0.882400      0.294073
   H      0.817181     -0.194658      0.585556
   H      0.290883      0.071410     -0.979203
   H      0.809105     -0.616143      3.220498
   N     -0.000004      0.000003      3.340001
   H     -0.857440     -0.517274      3.126199
   H     -0.034935      0.333715      4.307453
   H      0.083332      0.799656      2.705840
