   10
 0030.xyz Energy 0.126858
   H     -0.913840      0.461686     -0.017509
   N      0.000005     -0.000003      0.000000
   H      0.716250      0.647809     -0.340317
   H      0.222054     -0.281092      0.959287
   H     -0.024533     -0.828368     -0.601462
   H      0.449826     -0.326791      4.979901
   N     -0.000002      0.000002      4.119995
   H      0.516377     -0.352984      3.309294
   H     -0.963874     -0.344109      4.087006
   H     -0.002295      1.023859      4.103864
