   10
 0031.xyz Energy 0.140557
   H      0.791691     -0.041122      0.648150
   N     -0.000004      0.000000     -0.000004
   H     -0.804621      0.423922      0.470491
   H      0.255247      0.564718     -0.815166
   H     -0.242257     -0.947521     -0.303427
   H     -0.252960     -0.488043      4.463939
   N      0.000001      0.000003      3.599995
   H     -0.122909     -0.631020      2.803010
   H     -0.602134      0.819835      3.482287
   H      0.977984      0.299190      3.650830
