   12
 0001.xyz Energy -0.127235
   H     -0.938174     -0.404143      0.071152
   N      0.000005      0.000002     -0.000000
   H      0.671293     -0.609875      0.475295
   H      0.259166      0.089459     -0.986601
   H      0.007644      0.924528      0.440160
   C     -1.002734     -0.734520      3.363807
   C      0.078314      0.053560      4.183872
   O      0.309538     -0.363714      5.383554
   O      0.622164      1.046775      3.558805
   H     -1.409513     -1.569530      3.947223
   H     -1.813633     -0.047500      3.079321
   H     -0.550775     -1.111174      2.434287
