   12
 0003.xyz Energy -0.128123
   H     -0.350274     -0.955409     -0.114310
   N      0.000002      0.000005      0.000001
   H      0.902601     -0.022894      0.482984
   H      0.116315      0.433293     -0.920478
   H     -0.668669      0.544937      0.551795
   C      1.055943      0.401545      5.796826
   C     -0.080310     -0.028198      4.803602
   O     -0.075379      0.536408      3.642560
   O     -0.906225     -0.909709      5.265941
   H      1.726164      1.137077      5.335433
   H      0.602112      0.827155      6.704228
   H      1.627499     -0.487458      6.102016
