   12
 0005.xyz Energy -0.111744
   H     -0.184831     -0.769993      0.649240
   N      0.000001      0.000004     -0.000004
   H      0.682687      0.640238      0.415356
   H      0.373122     -0.374952     -0.876780
   H     -0.870991      0.504648     -0.187767
   C     -1.440949      0.124981      4.982297
   C      0.112430     -0.010036      5.158446
   O      0.560291      0.019546      6.368968
   O      0.778813     -0.135469      4.057012
   H     -1.942299      0.211925      5.953984
   H     -1.660255      1.011091      4.368131
   H     -1.823011     -0.752604      4.440064
