   12
 0006.xyz Energy -0.11252
   H     -0.330328      0.799306     -0.548233
   N      0.000002     -0.000004      0.000003
   H      0.807072     -0.423676     -0.466498
   H      0.273432      0.316769      0.934582
   H     -0.750201     -0.692339      0.080107
   C     -0.647918     -0.604752      6.433820
   C      0.046380      0.051609      5.189078
   O     -0.605578      0.994918      4.595832
   O      1.207990     -0.433456      4.891877
   H     -1.618652     -0.136257      6.636984
   H     -0.783967     -1.680495      6.247401
   H      0.008192     -0.504331      7.311077
