   12
 0007.xyz Energy -0.153405
   H     -0.629147      0.802985      0.089182
   N      0.000003     -0.000004     -0.000000
   H      0.970169      0.314898      0.089994
   H     -0.207901     -0.679976      0.736860
   H     -0.133168     -0.437846     -0.916029
   C      0.065832      1.340782      2.838936
   C     -0.000967     -0.107136      3.440029
   O      0.676348     -1.018460      2.825576
   O     -0.738066     -0.227349      4.496055
   H      0.718085      1.372599      1.957665
   H     -0.948713      1.666405      2.564794
   H      0.437367      2.036153      3.606116
