   12
 0010.xyz Energy -0.0946994
   H      0.395701      0.913415      0.240122
   N     -0.000002     -0.000005     -0.000001
   H      0.753913     -0.688310     -0.079570
   H     -0.653108     -0.292259      0.732521
   H     -0.496476      0.067223     -0.893054
   C      0.691531     -0.536884      4.037949
   C     -0.052356      0.047758      5.289775
   O      0.138956      1.299443      5.541777
   O     -0.781594     -0.801096      5.938323
   H      1.276772      0.238576      3.528791
   H      1.354076     -1.354347      4.359312
   H     -0.046393     -0.966278      3.344240
