   12
 0011.xyz Energy -0.0972458
   H     -0.999400      0.141075     -0.172807
   N      0.000005     -0.000001      0.000001
   H      0.478024      0.905523     -0.002868
   H      0.128645     -0.451004      0.910274
   H      0.392654     -0.595583     -0.734612
   C      0.929519      0.799280      4.596438
   C     -0.075943     -0.064287      5.436403
   O     -1.074787     -0.572603      4.795509
   O      0.211183     -0.169836      6.693134
   H      0.634319      0.833221      3.540601
   H      0.962873      1.819074      5.008010
   H      1.939966      0.374591      4.690141
