   12
 0013.xyz Energy -0.109067
   H     -0.982422      0.125065     -0.260326
   N      0.000005     -0.000001      0.000001
   H      0.130011      0.266713      0.980024
   H      0.263781     -0.981567     -0.124493
   H      0.588556      0.589798     -0.595225
   C      0.683076     -0.645868      6.530444
   C     -0.058780      0.047780      5.334306
   O     -1.268014     -0.340605      5.102508
   O      0.633796      0.940917      4.705337
   H      0.034058     -1.378075      7.026162
   H      1.589390     -1.143855      6.154825
   H      1.004651      0.119747      7.251946
