   12
 0014.xyz Energy -0.149832
   H      0.178615     -0.908023      0.438355
   N     -0.000001      0.000005     -0.000002
   H      0.726927      0.663870      0.281674
   H      0.009685     -0.104913     -1.018554
   H     -0.915214      0.348997      0.298557
   C      0.856217      1.171823      3.677300
   C     -0.070340     -0.089307      3.792573
   O     -0.920222     -0.093624      4.764428
   O      0.124990     -0.995644      2.890711
   H      0.626400      1.903467      4.461500
   H      1.907585      0.857372      3.756236
   H      0.724572      1.630320      2.686042
