   12
 0015.xyz Energy -0.160085
   H     -0.898921      0.249014      0.422490
   N      0.000005     -0.000001     -0.000002
   H      0.659348      0.774285      0.119289
   H      0.371305     -0.837938      0.456666
   H     -0.131800     -0.185342     -0.998413
   C      1.034872     -0.448949      4.858862
   C     -0.085512      0.033856      3.872008
   O     -1.305953     -0.163079      4.244245
   O      0.344676      0.580221      2.781420
   H      0.600204     -0.886571      5.765856
   H      1.668400     -1.192123      4.352088
   H      1.677591      0.403453      5.124316
