   12
 0016.xyz Energy -0.134889
   H      0.701838     -0.710213      0.227124
   N     -0.000004      0.000004     -0.000001
   H     -0.931131     -0.350720      0.241819
   H      0.192557      0.852848      0.533033
   H      0.036789      0.208031     -1.001959
   C      0.054000     -1.451294      4.052513
   C     -0.008532      0.114028      4.142524
   O     -0.752227      0.712420      3.273234
   O      0.702595      0.636220      5.088340
   H     -0.582198     -1.825737      3.241260
   H      1.095653     -1.763211      3.884728
   H     -0.267414     -1.883753      5.011583
