   12
 0019.xyz Energy -0.118809
   H      0.645252     -0.679331      0.413187
   N     -0.000004      0.000004     -0.000002
   H      0.377575      0.944528      0.117433
   H     -0.113841     -0.200485     -0.997696
   H     -0.908937     -0.064764      0.467109
   C      0.223558     -1.436689      4.787385
   C     -0.018836      0.112361      4.850087
   O     -0.466790      0.581264      5.966459
   O      0.258977      0.753813      3.761825
   H     -0.017155     -1.912980      5.745660
   H     -0.398036     -1.868630      3.988928
   H      1.274432     -1.629956      4.525742
