   12
 0020.xyz Energy -0.100857
   H      0.554770     -0.671487     -0.538424
   N     -0.000003      0.000004      0.000003
   H     -0.940724      0.063497     -0.399365
   H     -0.062727     -0.311807      0.973341
   H      0.448724      0.919746     -0.035593
   C      1.246653     -0.419427      6.481902
   C     -0.100919      0.031300      5.816214
   O     -1.182300     -0.221769      6.474537
   O      0.024096      0.611501      4.666999
   H      1.067645     -0.888400      7.457149
   H      1.760797     -1.127890      5.815403
   H      1.903683      0.454823      6.600824
