   12
 0022.xyz Energy -0.100743
   H     -0.865635     -0.315825     -0.446649
   N      0.000005      0.000002      0.000002
   H      0.130882      0.999811     -0.178140
   H     -0.057932     -0.162141      1.009409
   H      0.792620     -0.521869     -0.384654
   C     -0.424046      0.409893      3.769964
   C      0.039018     -0.030519      5.203091
   O      1.308211      0.008490      5.436426
   O     -0.914668     -0.389728      5.999588
   H      0.431504      0.714933      3.155089
   H     -0.952090     -0.425853      3.287072
   H     -1.138303      1.241861      3.858332
