   12
 0023.xyz Energy -0.117342
   H      0.352150      0.164353      0.947387
   N     -0.000002     -0.000001     -0.000005
   H     -0.037444      0.887705     -0.508985
   H      0.624706     -0.647615     -0.488763
   H     -0.939386     -0.404430      0.050432
   C     -1.095579      0.262097      3.619220
   C      0.082030     -0.020920      4.616908
   O     -0.223205     -0.069585      5.870417
   O      1.241686     -0.173746      4.064823
   H     -2.048502      0.365337      4.152479
   H     -0.880525      1.182915      3.056787
   H     -1.160316     -0.559616      2.890700
