   12
 0024.xyz Energy -0.0960906
   H      0.517087     -0.342446     -0.814810
   N     -0.000003      0.000002      0.000004
   H      0.373427      0.910374      0.283300
   H     -0.990564      0.097266     -0.240573
   H      0.100089     -0.665220      0.772021
   C      0.286989      0.970994      4.275189
   C     -0.022576     -0.080690      5.397852
   O     -0.263631     -1.287343      5.007081
   O     -0.003246      0.385484      6.604195
   H      0.268946      0.505299      3.282269
   H     -0.456874      1.780300      4.321837
   H      1.273445      1.421141      4.460706
