   12
 0025.xyz Energy -0.114093
   H     -0.335915      0.853591     -0.455091
   N      0.000002     -0.000005      0.000002
   H      0.862566      0.203460      0.512904
   H     -0.711939     -0.342209      0.651605
   H      0.185262     -0.714778     -0.709452
   C     -0.363199     -1.386276      4.448707
   C      0.024634      0.108982      4.724445
   O     -0.651878      0.721216      5.637856
   O      0.989610      0.567047      3.995093
   H     -1.174888     -1.712025      5.110624
   H     -0.672373     -1.492554      3.398182
   H      0.520622     -2.024341      4.596618
