   12
 0026.xyz Energy -0.110479
   H      0.857131     -0.554506     -0.080089
   N     -0.000005      0.000003      0.000000
   H     -0.776582     -0.609419      0.272059
   H      0.128630      0.726564      0.710008
   H     -0.209114      0.437318     -0.901984
   C      1.287959     -0.168666      6.175391
   C     -0.103588      0.014935      5.473870
   O     -1.105596      0.284527      6.242061
   O     -0.091067     -0.128141      4.188440
   H      1.206567     -0.018910      7.258920
   H      1.668973     -1.179237      5.965489
   H      2.006661      0.547616      5.750478
