   12
 0027.xyz Energy -0.100626
   H      0.251630      0.871846     -0.474480
   N     -0.000001     -0.000005      0.000003
   H     -0.599815     -0.560712     -0.611809
   H      0.850255     -0.526447      0.220165
   H     -0.502051      0.215379      0.866088
   C     -0.627931      1.297492      5.997585
   C      0.049585     -0.100795      5.778480
   O      0.242197     -0.462817      4.554282
   O      0.341112     -0.743080      6.862657
   H     -0.832742      1.791276      5.039818
   H     -1.566060      1.161970      6.556183
   H      0.031248      1.928648      6.611807
