   12
 0028.xyz Energy -0.134035
   H      0.748350      0.655989      0.241279
   N     -0.000004     -0.000004     -0.000001
   H     -0.250260      0.115442     -0.986169
   H      0.321685     -0.958800      0.160538
   H     -0.819718      0.187418      0.584370
   C      0.196929      1.276325      2.929897
   C     -0.010112     -0.102168      3.650408
   O      0.863319     -1.019817      3.401695
   O     -1.046918     -0.166109      4.421057
   H      1.099710      1.264491      2.307055
   H     -0.683460      1.495677      2.307574
   H      0.271983      2.073303      3.684440
