   12
 0030.xyz Energy -0.13939
   H      0.876016     -0.392671      0.356329
   N     -0.000005      0.000002     -0.000002
   H     -0.742759     -0.701087      0.072622
   H     -0.253766      0.824517      0.551657
   H      0.120575      0.269210     -0.980581
   C     -0.581644      1.322181      4.025788
   C      0.046866     -0.104047      4.207693
   O      0.394180     -0.723037      3.129247
   O      0.146031     -0.505677      5.433179
   H     -0.620957      1.604018      2.966491
   H     -1.595997      1.328116      4.451859
   H      0.014374      2.056508      4.587634
