   12
 0031.xyz Energy -0.128516
   H      0.015514     -0.130750      1.015494
   N     -0.000000      0.000001     -0.000006
   H     -0.502569     -0.777976     -0.436652
   H     -0.472944      0.880273     -0.223598
   H      0.960000      0.028443     -0.355167
   C     -0.197624      0.421093      6.378567
   C      0.012873     -0.027905      4.889832
   O     -0.515439      0.721790      3.981171
   O      0.699160     -1.113677      4.737962
   H     -0.772569      1.353652      6.432051
   H     -0.724630     -0.374630      6.925901
   H      0.782422      0.556326      6.859572
