   12
 0032.xyz Energy -0.111587
   H      0.025743      0.501388      0.892475
   N     -0.000000     -0.000003     -0.000005
   H      0.713722     -0.734226      0.000296
   H     -0.924073     -0.422295     -0.127704
   H      0.184610      0.655170     -0.764999
   C      0.936275      1.105214      5.376798
   C     -0.072405     -0.088399      5.235043
   O     -0.144281     -0.904326      6.233000
   O     -0.725724     -0.122672      4.119268
   H      1.442262      1.080981      6.349668
   H      1.679612      1.049427      4.567587
   H      0.394216      2.055216      5.259273
