   12
 0037.xyz Energy -0.229499
   H     -0.906000      1.374000      0.240000
   N     -0.462000      0.466000      0.272000
   H     -0.370000     -0.058000     -0.589000
   H      0.477000      0.544000      0.741000
   H     -0.925000     -0.132000      1.003000
   C      1.028000     -1.168000      3.983000
   C      0.508000     -0.602000      2.702000
   O      1.279000      0.109000      1.987000
   O     -0.688000     -0.841000      2.356000
   H      1.779000     -1.934000      3.770000
   H      1.487000     -0.379000      4.585000
   H      0.222000     -1.623000      4.568000
