   12
 0038.xyz Energy -0.227182
   H     -0.906000      1.374000      0.240000
   N     -0.462000      0.466000      0.272000
   H     -0.370000     -0.058000     -0.589000
   H      0.477000      0.544000      0.741000
   H     -0.925000     -0.132000      1.003000
   C      0.995920     -1.150600      3.933160
   C      0.475920     -0.584600      2.652160
   O      1.246920      0.126400      1.937160
   O     -0.720080     -0.823600      2.306160
   H      1.746920     -1.916600      3.720160
   H      1.454920     -0.361600      4.535160
   H      0.189920     -1.605600      4.518160
