   12
 0039.xyz Energy -0.219767
   H     -0.906000      1.374000      0.240000
   N     -0.462000      0.466000      0.272000
   H     -0.370000     -0.058000     -0.589000
   H      0.477000      0.544000      0.741000
   H     -0.925000     -0.132000      1.003000
   C      0.947800     -1.124500      3.858400
   C      0.427800     -0.558500      2.577400
   O      1.198800      0.152500      1.862400
   O     -0.768200     -0.797500      2.231400
   H      1.698800     -1.890500      3.645400
   H      1.406800     -0.335500      4.460400
   H      0.141800     -1.579500      4.443400
