   16
 0000.xyz Energy 0.107133
   N     -2.275000      0.997000     -3.019000
   C     -1.005000      0.824000     -2.236000
   H     -2.605000      0.084000     -3.369000
   H     -2.113000      1.623000     -3.824000
   H     -3.009000      1.409000     -2.420000
   H     -0.245000      0.394000     -2.893000
   H     -1.167000      0.162000     -1.381000
   H     -0.674000      1.804000     -1.883000
   N      2.020700      0.482900     -0.466000
   C      2.749700      1.375900     -1.433000
   H      1.029700      0.380900     -0.743000
   H      2.050700      0.876900      0.489000
   H      2.448700     -0.457100     -0.443000
   H      2.260700      2.354900     -1.442000
   H      2.683700      0.935900     -2.432000
   H      3.803700      1.506900     -1.171000
