   16
 0003.xyz Energy 0.101792
   N     -2.275000      0.997000     -3.019000
   C     -1.005000      0.824000     -2.236000
   H     -2.605000      0.084000     -3.369000
   H     -2.113000      1.623000     -3.824000
   H     -3.009000      1.409000     -2.420000
   H     -0.245000      0.394000     -2.893000
   H     -1.167000      0.162000     -1.381000
   H     -0.674000      1.804000     -1.883000
   N      2.304484      0.511179     -0.383579
   C      3.033484      1.404179     -1.350579
   H      1.313484      0.409179     -0.660579
   H      2.334484      0.905179      0.571421
   H      2.732484     -0.428821     -0.360579
   H      2.544484      2.383179     -1.359579
   H      2.967484      0.964179     -2.349579
   H      4.087484      1.535179     -1.088579
