   16
 0006.xyz Energy 0.105268
   N     -2.275000      0.997000     -3.019000
   C     -1.005000      0.824000     -2.236000
   H     -2.605000      0.084000     -3.369000
   H     -2.113000      1.623000     -3.824000
   H     -3.009000      1.409000     -2.420000
   H     -0.245000      0.394000     -2.893000
   H     -1.167000      0.162000     -1.381000
   H     -0.674000      1.804000     -1.883000
   N      2.115295      0.492326     -0.438526
   C      2.844295      1.385326     -1.405526
   H      1.124295      0.390326     -0.715526
   H      2.145295      0.886326      0.516474
   H      2.543295     -0.447674     -0.415526
   H      2.355295      2.364326     -1.414526
   H      2.778295      0.945326     -2.404526
   H      3.898295      1.516326     -1.143526
