   16
 0009.xyz Energy 0.123558
   N     -2.275000      0.997000     -3.019000
   C     -1.005000      0.824000     -2.236000
   H     -2.605000      0.084000     -3.369000
   H     -2.113000      1.623000     -3.824000
   H     -3.009000      1.409000     -2.420000
   H     -0.245000      0.394000     -2.893000
   H     -1.167000      0.162000     -1.381000
   H     -0.674000      1.804000     -1.883000
   N      1.453132      0.426342     -0.630842
   C      2.182132      1.319342     -1.597842
   H      0.462132      0.324342     -0.907842
   H      1.483132      0.820342      0.324158
   H      1.881132     -0.513658     -0.607842
   H      1.693132      2.298342     -1.606842
   H      2.116132      0.879342     -2.596842
   H      3.236132      1.450342     -1.335842
