   16
 0012.xyz Energy 0.592785
   N     -2.275000      0.997000     -3.019000
   C     -1.005000      0.824000     -2.236000
   H     -2.605000      0.084000     -3.369000
   H     -2.113000      1.623000     -3.824000
   H     -3.009000      1.409000     -2.420000
   H     -0.245000      0.394000     -2.893000
   H     -1.167000      0.162000     -1.381000
   H     -0.674000      1.804000     -1.883000
   N      0.317995      0.313226     -0.960526
   C      1.046995      1.206226     -1.927526
   H     -0.673005      0.211226     -1.237526
   H      0.347995      0.707226     -0.005526
   H      0.745995     -0.626774     -0.937526
   H      0.557995      2.185226     -1.936526
   H      0.980995      0.766226     -2.926526
   H      2.100995      1.337226     -1.665526
