   16
 0015.xyz Energy 22.1453
   N     -2.275000      0.997000     -3.019000
   C     -1.005000      0.824000     -2.236000
   H     -2.605000      0.084000     -3.369000
   H     -2.113000      1.623000     -3.824000
   H     -3.009000      1.409000     -2.420000
   H     -0.245000      0.394000     -2.893000
   H     -1.167000      0.162000     -1.381000
   H     -0.674000      1.804000     -1.883000
   N     -1.290116      0.152979     -1.427579
   C     -0.561116      1.045979     -2.394579
   H     -2.281116      0.050979     -1.704579
   H     -1.260116      0.546979     -0.472579
   H     -0.862116     -0.787021     -1.404579
   H     -1.050116      2.024979     -2.403579
   H     -0.627116      0.605979     -3.393579
   H      0.492884      1.176979     -2.132579
