   16
 0016.xyz Energy 9.92304
   N     -2.275000      0.997000     -3.019000
   C     -1.005000      0.824000     -2.236000
   H     -2.605000      0.084000     -3.369000
   H     -2.113000      1.623000     -3.824000
   H     -3.009000      1.409000     -2.420000
   H     -0.245000      0.394000     -2.893000
   H     -1.167000      0.162000     -1.381000
   H     -0.674000      1.804000     -1.883000
   N     -1.931258      0.089089     -1.613789
   C     -1.202258      0.982089     -2.580789
   H     -2.922258     -0.012911     -1.890789
   H     -1.901258      0.483089     -0.658789
   H     -1.503258     -0.850911     -1.590789
   H     -1.691258      1.961089     -2.589789
   H     -1.268258      0.542089     -3.579789
   H     -0.148258      1.113089     -2.318789
