   16
 0018.xyz Energy 11.964
   N     -2.275000      0.997000     -3.019000
   C     -1.005000      0.824000     -2.236000
   H     -2.605000      0.084000     -3.369000
   H     -2.113000      1.623000     -3.824000
   H     -3.009000      1.409000     -2.420000
   H     -0.245000      0.394000     -2.893000
   H     -1.167000      0.162000     -1.381000
   H     -0.674000      1.804000     -1.883000
   N     -3.371200     -0.054400     -2.032000
   C     -2.642200      0.838600     -2.999000
   H     -4.362200     -0.156400     -2.309000
   H     -3.341200      0.339600     -1.077000
   H     -2.943200     -0.994400     -2.009000
   H     -3.131200      1.817600     -3.008000
   H     -2.708200      0.398600     -3.998000
   H     -1.588200      0.969600     -2.737000
