   16
 0019.xyz Energy 12.2992
   N     -2.275000      0.997000     -3.019000
   C     -1.005000      0.824000     -2.236000
   H     -2.605000      0.084000     -3.369000
   H     -2.113000      1.623000     -3.824000
   H     -3.009000      1.409000     -2.420000
   H     -0.245000      0.394000     -2.893000
   H     -1.167000      0.162000     -1.381000
   H     -0.674000      1.804000     -1.883000
   N     -4.170000     -0.134000     -2.264000
   C     -3.441000      0.759000     -3.231000
   H     -5.161000     -0.236000     -2.541000
   H     -4.140000      0.260000     -1.309000
   H     -3.742000     -1.074000     -2.241000
   H     -3.930000      1.738000     -3.240000
   H     -3.507000      0.319000     -4.230000
   H     -2.387000      0.890000     -2.969000
