   16
 0021.xyz Energy 0.106206
   N     -0.427150     -0.368012     -0.394315
   C      0.488948      0.421256      0.451380
   H     -1.291184     -0.606237      0.110097
   H      0.007832     -1.249679     -0.696533
   H     -0.695981      0.150541     -1.240927
   H      0.735553     -0.180273      1.328271
   H     -0.028157      1.339080      0.737672
   H      1.381420      0.640887     -0.137713
   N     -0.256668      0.242919      4.349672
   C      0.293806     -0.278054      5.615748
   H     -0.042846      1.241885      4.230996
   H     -1.279355      0.139106      4.314847
   H      0.132746     -0.255419      3.538540
   H     -0.155865      0.288263      6.433469
   H      1.376409     -0.139753      5.591194
   H      0.034649     -1.336453      5.682100
