   16
 0022.xyz Energy 0.129855
   N      0.072025     -0.002527      0.684237
   C     -0.082436      0.002900     -0.783241
   H      0.623947      0.803464      1.005951
   H      0.550139     -0.853841      1.007581
   H     -0.840387      0.038556      1.157245
   H      0.915136     -0.042000     -1.224173
   H     -0.593626      0.926388     -1.061839
   H     -0.673789     -0.872014     -1.060010
   N     -0.072077     -0.514397      4.228806
   C      0.082493      0.588824      5.196481
   H     -1.061500     -0.675294      3.998828
   H      0.306254     -1.395322      4.601253
   H      0.421372     -0.313128      3.349080
   H     -0.460464      0.316083      6.103342
   H     -0.335644      1.490384      4.744694
   H      1.148597      0.709054      5.398323
