   16
 0023.xyz Energy 0.0961292
   N     -0.244168      0.434594      0.474220
   C      0.279504     -0.497465     -0.542842
   H     -0.206788      1.408202      0.144938
   H      0.298994      0.381721      1.346034
   H     -1.223708      0.223891      0.706657
   H      1.316528     -0.222981     -0.744898
   H     -0.335662     -0.394198     -1.438759
   H      0.213094     -1.508074     -0.135370
   N      0.329298     -0.217537      5.903574
   C     -0.376946      0.249000      4.694878
   H      0.690819     -1.172560      5.781218
   H     -0.293469     -0.224918      6.722102
   H      1.128594      0.389521      6.128354
   H     -1.209430     -0.432604      4.510560
   H      0.333588      0.234035      3.866218
   H     -0.734425      1.262399      4.887242
