   16
 0025.xyz Energy 0.100246
   N      0.164883      0.154619      0.649832
   C     -0.188729     -0.176985     -0.743861
   H      0.797365      0.964435      0.693452
   H      0.637288     -0.632326      1.113977
   H     -0.670655      0.384299      1.203947
   H      0.735241     -0.409910     -1.276414
   H     -0.683918      0.693251     -1.178875
   H     -0.857686     -1.039430     -0.722482
   N      0.091414     -0.265764      5.828003
   C     -0.104634      0.304207      4.481125
   H      0.880314     -0.925384      5.844603
   H     -0.744288     -0.774815      6.144782
   H      0.287484      0.468712      6.520838
   H     -0.307770     -0.520768      3.795751
   H      0.811833      0.828507      4.203712
   H     -0.951065      0.991946      4.529523
