   16
 0026.xyz Energy 0.0938804
   N      0.297499     -0.269461     -0.558802
   C     -0.340540      0.308462      0.639652
   H      1.099664      0.296178     -0.865920
   H     -0.362615     -0.323210     -1.345720
   H      0.641479     -1.221752     -0.377861
   H     -0.682382      1.313209      0.384285
   H      0.407163      0.338328      1.434517
   H     -1.179575     -0.333878      0.913865
   N     -0.669184      0.159655      5.051167
   C      0.766008     -0.182756      5.070125
   H     -0.969356      0.566073      5.946968
   H     -1.250387     -0.671075      4.878045
   H     -0.881279      0.844798      4.313933
   H      0.925431     -0.909314      5.869052
   H      1.325997      0.735522      5.257046
   H      1.021001     -0.606894      4.097058
