   16
 0027.xyz Energy 0.111861
   N      0.099841      0.007707     -0.680696
   C     -0.114275     -0.008816      0.779188
   H      1.100766      0.055902     -0.912135
   H     -0.358142      0.818486     -1.117467
   H     -0.280088     -0.838677     -1.124777
   H      0.308443      0.910350      1.189102
   H      0.393223     -0.887771      1.181239
   H     -1.189921     -0.060330      0.958368
   N      0.268721     -0.308766      4.006983
   C     -0.307592      0.353450      5.193034
   H      1.286078     -0.166944      3.955902
   H     -0.139031      0.058999      3.137289
   H      0.098091     -1.322922      4.024083
   H     -0.094122      1.421199      5.116033
   H      0.163235     -0.078216      6.078329
   H     -1.383209      0.166872      5.190006
