   16
 0028.xyz Energy 0.0940442
   N     -0.176712      0.114728     -0.654970
   C      0.202279     -0.131315      0.749741
   H     -0.030149      1.098705     -0.915827
   H     -1.167986     -0.104699     -0.819611
   H      0.379213     -0.462480     -1.299716
   H     -0.419606      0.507033      1.380104
   H      1.259240      0.118900      0.859223
   H      0.024569     -1.187002      0.963558
   N     -0.466504      0.376423      5.177720
   C      0.534011     -0.430876      4.453413
   H     -0.381472      1.374799      4.945874
   H     -0.355874      0.284743      6.196168
   H     -1.424487      0.084699      4.943020
   H      1.524143     -0.074631      4.743782
   H      0.364701     -0.291643      3.383970
   H      0.392387     -1.474515      4.740702
