   16
 0029.xyz Energy 0.0963076
   N     -0.642810      0.091866     -0.227443
   C      0.735816     -0.105151      0.260364
   H     -1.104450      0.871836      0.258636
   H     -1.216695     -0.748596     -0.078577
   H     -0.657637      0.302365     -1.234116
   H      0.683994     -0.323896      1.328564
   H      1.290648      0.816528      0.074812
   H      1.168826     -0.941844     -0.291199
   N      0.029844      0.194320      5.399336
   C     -0.034150     -0.222431      3.985262
   H      0.727955      0.936315      5.540122
   H      0.286551     -0.592079      6.010530
   H     -0.876300      0.556155      5.724754
   H      0.952153     -0.594549      3.701850
   H     -0.309548      0.651405      3.391690
   H     -0.788604     -1.007078      3.902195
