   16
 0031.xyz Energy 0.0988137
   N     -0.620894      0.290181     -0.060496
   C      0.710737     -0.332157      0.069256
   H     -0.569276      1.311672      0.047346
   H     -1.271182     -0.063877      0.653402
   H     -1.036833      0.096792     -0.981101
   H      1.096416     -0.091725      1.061743
   H      1.350787      0.082674     -0.711776
   H      0.589070     -1.409993     -0.054198
   N      0.102505     -0.036365      5.339371
   C     -0.117325      0.041620      3.882328
   H      1.098299     -0.165522      5.561744
   H     -0.411962     -0.824410      5.754327
   H     -0.211457      0.821429      5.812169
   H      0.234099     -0.892950      3.441116
   H      0.451744      0.892881      3.503808
   H     -1.187119      0.177964      3.712848
