   16
 0032.xyz Energy 0.105595
   N      0.201156     -0.481162      0.448770
   C     -0.230262      0.550790     -0.513693
   H     -0.093844     -0.247634      1.405942
   H      1.224702     -0.582034      0.456351
   H     -0.198639     -1.400111      0.217219
   H      0.224810      1.497009     -0.215087
   H     -1.319660      0.609433     -0.474526
   H      0.111119      0.246474     -1.504967
   N      0.535228      0.430163      5.103193
   C     -0.612672     -0.492400      5.010545
   H      0.500600      1.146662      4.366193
   H      1.427886     -0.071335      5.005516
   H      0.551818      0.917989      6.008549
   H     -0.574100     -0.976293      4.032820
   H     -1.524765      0.097199      5.121093
   H     -0.518513     -1.224442      5.814921
