   16
 0035.xyz Energy 0.111164
   N      0.396272      0.186882     -0.530489
   C     -0.453619     -0.213924      0.607238
   H     -0.170806      0.478294     -1.337483
   H      0.998846     -0.587397     -0.839159
   H      1.008399      0.975086     -0.281585
   H     -1.075874     -1.049421      0.281156
   H     -1.065619      0.645974      0.886149
   H      0.203677     -0.510378      1.426903
   N     -0.075123     -0.003674      4.036101
   C      0.085982      0.004213      5.502854
   H     -0.621873      0.805993      3.714789
   H     -0.561638     -0.851860      3.717097
   H      0.835456      0.028730      3.558906
   H     -0.909929     -0.031391      5.948366
   H      0.605961      0.924185      5.776778
   H      0.671396     -0.874811      5.779223
