   16
 0036.xyz Energy 0.0972804
   N     -0.111703     -0.464165      0.495427
   C      0.127867      0.531316     -0.567119
   H      0.327078     -1.366463      0.269443
   H     -1.117142     -0.634089      0.629953
   H      0.272361     -0.150312      1.396488
   H     -0.300692      0.141778     -1.492422
   H      1.207064      0.666679     -0.660773
   H     -0.360086      1.461417     -0.269482
   N      0.360032     -0.085836      5.879986
   C     -0.412114      0.098259      4.636089
   H      1.244233      0.438774      5.853319
   H      0.592190     -1.075936      6.033887
   H     -0.168119      0.239314      6.700506
   H      0.198938     -0.263649      3.807100
   H     -0.626005      1.163543      4.530342
   H     -1.333592     -0.480103      4.726367
