   16
 0037.xyz Energy 0.117417
   N      0.433636      0.457472      0.275779
   C     -0.496386     -0.523664     -0.315670
   H      0.430804      0.404615      1.302880
   H      0.179516      1.419322      0.014728
   H      1.399189      0.296040     -0.039762
   H     -1.498212     -0.300149      0.055778
   H     -0.174848     -1.519047     -0.003282
   H     -0.447438     -0.417949     -1.401120
   N     -0.284528      0.625903      4.445771
   C      0.325706     -0.716461      4.390508
   H      0.404388      1.339878      4.716645
   H     -1.051744      0.660902      5.129901
   H     -0.671267      0.899616      3.532845
   H      0.715210     -0.947345      5.383769
   H      1.128159     -0.688339      3.650887
   H     -0.451985     -1.425080      4.099254
