   16
 0039.xyz Energy 0.103493
   N     -0.140968      0.408567      0.535328
   C      0.161375     -0.467675     -0.612789
   H      0.247912      1.351023      0.400098
   H      0.254058      0.033049      1.407579
   H     -1.155277      0.509134      0.673104
   H      1.247008     -0.533677     -0.705690
   H     -0.282150     -0.017056     -1.502727
   H     -0.275567     -1.447218     -0.409443
   N     -0.648877      0.211437      5.327335
   C      0.742760     -0.242038      5.140017
   H     -1.316826     -0.440583      4.895535
   H     -0.801784      1.136365      4.904242
   H     -0.888256      0.284129      6.324999
   H      0.933959     -0.298517      4.066780
   H      0.840152     -1.223341      5.608334
   H      1.399004      0.487878      5.617866
