   16
 0041.xyz Energy 0.134209
   N      0.295004      0.537384      0.312355
   C     -0.337676     -0.615146     -0.357549
   H      1.319477      0.503614      0.228376
   H      0.067283      0.559324      1.315122
   H     -0.019825      1.427355     -0.096000
   H      0.035031     -1.523994      0.118551
   H     -0.059424     -0.582201     -1.412656
   H     -1.418243     -0.521660     -0.233410
   N      0.007838      0.271174      3.787720
   C     -0.008981     -0.310420      5.143761
   H     -0.817464     -0.017204      3.246008
   H      0.841377     -0.025293      3.263124
   H      0.012526      1.299180      3.820896
   H     -0.013180     -1.397160      5.040974
   H     -0.912619      0.039911      5.646222
   H      0.887452      0.031225      5.664779
