   16
 0044.xyz Energy 0.0838684
   N     -0.117546      0.505339     -0.451875
   C      0.134558     -0.578447      0.517266
   H      0.447268      1.337885     -0.238359
   H     -1.105418      0.791599     -0.445352
   H      0.113353      0.212190     -1.410347
   H     -0.128439     -0.207018      1.509465
   H      1.194077     -0.835698      0.462468
   H     -0.490787     -1.428502      0.237760
   N     -0.057560     -0.469994      6.059167
   C      0.065894      0.538006      4.988617
   H     -0.054923     -0.031091      6.989272
   H      0.720171     -1.142516      6.032153
   H     -0.931982     -1.004450      5.971633
   H      1.008588      1.068203      5.136287
   H     -0.784093      1.218120      5.070645
   H      0.056918      0.012014      4.032048
