   16
 0045.xyz Energy 0.0964349
   N      0.551293      0.228134     -0.342645
   C     -0.631052     -0.261151      0.392231
   H      1.347084     -0.415779     -0.243501
   H      0.853055      1.148565      0.003224
   H      0.354495      0.324499     -1.347585
   H     -0.359307     -0.341551      1.446402
   H     -0.900271     -1.235811     -0.019254
   H     -1.436359      0.461733      0.248384
   N     -0.590365      0.078166      5.104579
   C      0.675791     -0.089468      4.365573
   H     -0.590626      0.946692      5.655397
   H     -0.750047     -0.701505      5.756111
   H     -1.395131      0.116922      4.465229
   H      1.486592     -0.123319      5.095670
   H      0.786715      0.764802      3.694990
   H      0.613638     -1.023713      3.804238
