   16
 0046.xyz Energy 0.109891
   N      0.364642      0.000247      0.583447
   C     -0.417399     -0.000296     -0.667869
   H      1.100904     -0.717622      0.565536
   H     -0.232833     -0.189560      1.398847
   H      0.821613      0.908424      0.739371
   H     -0.874739     -0.985622     -0.775384
   H      0.269425      0.205688     -1.491036
   H     -1.177815      0.778781     -0.586748
   N     -0.435889     -0.515724      4.988071
   C      0.498951      0.590352      5.271009
   H     -0.908972     -0.384651      4.084329
   H     -1.163945     -0.585307      5.711239
   H      0.053030     -1.419969      4.953187
   H     -0.077580      1.516971      5.294979
   H      1.242926      0.611393      4.472373
   H      0.966270      0.393565      6.237788
