   16
 0048.xyz Energy 0.108235
   N     -0.414426     -0.347497     -0.425290
   C      0.474379      0.397782      0.486832
   H     -1.360116      0.056468     -0.440109
   H     -0.502893     -1.331974     -0.140931
   H     -0.057352     -0.334887     -1.389789
   H      0.043206      0.347342      1.488397
   H      0.526607      1.429331      0.133364
   H      1.456828     -0.077330      0.457922
   N      0.639023      0.247561      4.301140
   C     -0.731482     -0.283381      4.170000
   H      0.962612      0.671061      3.421552
   H      1.306025     -0.494403      4.551097
   H      0.692613      0.970501      5.030801
   H     -0.722111     -1.041660      3.384817
   H     -1.387755      0.547861      3.905231
   H     -1.015080     -0.716762      5.131003
