   16
 0050.xyz Energy 0.113384
   N      0.601584      0.325444     -0.074545
   C     -0.688635     -0.372521      0.085332
   H      0.543996      1.298982      0.252021
   H      0.896754      0.346434     -1.059591
   H      1.347056     -0.137409      0.462072
   H     -1.433909      0.164019     -0.504818
   H     -0.945389     -0.360928      1.146323
   H     -0.562520     -1.394601     -0.276915
   N     -0.564635     -0.336413      4.156558
   C      0.646334      0.385080      4.592888
   H     -0.977331     -0.876818      4.928168
   H     -0.354435     -0.995181      3.395164
   H     -1.284747      0.313102      3.813792
   H      1.368031     -0.355184      4.943244
   H      0.358619      1.064375      5.397586
   H      1.034472      0.935977      3.734031
