   16
 0054.xyz Energy 0.114223
   N      0.083956     -0.181179      0.658407
   C     -0.096103      0.207382     -0.753677
   H      0.576785     -1.080198      0.739792
   H     -0.820446     -0.279526      1.138267
   H      0.632652      0.520243      1.173052
   H     -0.682617     -0.572772     -1.242499
   H      0.894122      0.294962     -1.204836
   H     -0.622018      1.163853     -0.772374
   N      0.325729     -0.189436      4.804335
   C     -0.372848      0.216854      6.038961
   H      1.342257     -0.057648      4.888243
   H      0.008060      0.360931      3.995594
   H      0.159000     -1.181163      4.588467
   H     -0.157586      1.272879      6.212336
   H      0.006251     -0.400350      6.855726
   H     -1.441539      0.053780      5.887043
