   16
 0056.xyz Energy 0.128213
   N     -2.275000      0.997000     -3.019000
   C     -1.005000      0.824000     -2.236000
   H     -2.605000      0.084000     -3.369000
   H     -2.113000      1.623000     -3.824000
   H     -3.009000      1.409000     -2.420000
   H     -0.245000      0.394000     -2.893000
   H     -1.167000      0.162000     -1.381000
   H     -0.674000      1.804000     -1.883000
   N      1.361900      0.417300     -0.657400
   C      2.090900      1.310300     -1.624400
   H      0.370900      0.315300     -0.934400
   H      1.391900      0.811300      0.297600
   H      1.789900     -0.522700     -0.634400
   H      1.601900      2.289300     -1.633400
   H      2.024900      0.870300     -2.623400
   H      3.144900      1.441300     -1.362400
