   16
 0057.xyz Energy 0.242991
   N     -2.275000      0.997000     -3.019000
   C     -1.005000      0.824000     -2.236000
   H     -2.605000      0.084000     -3.369000
   H     -2.113000      1.623000     -3.824000
   H     -3.009000      1.409000     -2.420000
   H     -0.245000      0.394000     -2.893000
   H     -1.167000      0.162000     -1.381000
   H     -0.674000      1.804000     -1.883000
   N      0.702800      0.351600     -0.848800
   C      1.431800      1.244600     -1.815800
   H     -0.288200      0.249600     -1.125800
   H      0.732800      0.745600      0.106200
   H      1.130800     -0.588400     -0.825800
   H      0.942800      2.223600     -1.824800
   H      1.365800      0.804600     -2.814800
   H      2.485800      1.375600     -1.553800
