    7
 0002.xyz Energy 0.0107409
   O      1.117189      0.311894     -0.004892
   O     -1.018976     -0.458932      0.310632
   C     -0.096110      0.143879     -0.299173
   H     -0.413730      0.619549     -1.288194
   O     -0.020535      0.032051      3.306733
   H      0.820645      0.132705      3.762153
   H     -0.494674     -0.641475      3.803400
