    7
 0004.xyz Energy 0.00458672
   O      0.059020      0.852363     -0.784479
   O     -0.380603     -0.887408      0.642707
   C      0.314676      0.034287      0.138731
   H      1.354952      0.147712      0.597280
   O     -0.034197     -0.052242      3.540315
   H      0.485916      0.037549      4.344392
   H      0.056934      0.791745      3.088095
