    7
 0005.xyz Energy 0.00486526
   O      0.741927     -0.046395      0.890397
   O     -0.453838      0.168757     -1.054028
   C     -0.281906     -0.119734      0.160112
   H     -1.213772     -0.515559      0.689503
   O      0.060152      0.025207      3.354295
   H     -0.648127      0.048555      2.703974
   H     -0.306734     -0.448685      4.106587
