    7
 0006.xyz Energy 0.00404915
   O      0.020856      0.366482     -1.100304
   O      0.183835     -0.081742      1.142343
   C     -0.200295     -0.278627     -0.041129
   H     -0.862437     -1.199691     -0.177199
   O      0.036515     -0.054333      4.120874
   H      0.342986      0.857044      4.145129
   H     -0.922629      0.005444      4.080990
