    7
 0007.xyz Energy 0.0103154
   O      0.826609     -0.624575     -0.521573
   O     -0.629752      0.548712      0.804831
   C     -0.192634      0.074237     -0.277171
   H     -0.829374      0.319596     -1.193505
   O     -0.041337     -0.000542      3.909233
   H      0.003682      0.645655      4.620236
   H      0.652494     -0.637055      4.105632
