    7
 0008.xyz Energy -0.0101545
   O      0.258447     -0.418282     -1.050552
   O     -0.134164      0.102245      1.147593
   C     -0.121616      0.309252     -0.094951
   H     -0.523634      1.331552     -0.408943
   O      0.039887      0.033962      5.179267
   H     -0.654134     -0.579209      5.439035
   H      0.020973      0.040101      4.217640
