    7
 0009.xyz Energy -0.00275609
   O      0.940895      0.190275     -0.651095
   O     -1.094100     -0.015952      0.384857
   C      0.149909     -0.170580      0.260524
   H      0.645572     -0.734473      1.121714
   O     -0.017296      0.063122      4.598344
   H      0.415237     -0.406346      5.317814
   H     -0.140679     -0.595648      3.908474
