    7
 0010.xyz Energy 0.00775717
   O     -1.058952      0.469382      0.060951
   O      1.098500     -0.215784     -0.303576
   C     -0.038693     -0.248154      0.237414
   H     -0.166705     -1.068469      1.022272
   O     -0.058504     -0.010941      3.232727
   H      0.534032     -0.658522      3.625998
   H      0.394663      0.832200      3.326930
