    7
 0012.xyz Energy -0.00942318
   O      0.131444      0.800137      0.829407
   O     -0.054675     -1.014597     -0.559489
   C     -0.075121      0.209849     -0.264127
   H     -0.323449      0.903654     -1.137210
   O     -0.044487     -0.044907      4.497044
   H     -0.002435      0.454968      3.676387
   H      0.708626      0.257881      5.013050
