    7
 0013.xyz Energy -0.00595365
   O     -0.697636     -0.738869     -0.559276
   O      0.874256      0.718708      0.254085
   C     -0.172822      0.019732      0.298641
   H     -0.744210      0.084892      1.285847
   O     -0.032502     -0.040381      4.439990
   H     -0.395534      0.675153      3.909575
   H      0.911475     -0.034138      4.255627
