    7
 0014.xyz Energy 0.00362865
   O      0.679427     -0.294809      0.892682
   O     -0.808408      0.517758     -0.651020
   C      0.126207     -0.218160     -0.236477
   H      0.543491     -0.939388     -1.018147
   O     -0.057845     -0.015291      4.253422
   H      0.142657      0.727043      4.831229
   H      0.775572     -0.484312      4.150673
