    7
 0015.xyz Energy -0.0143021
   O     -0.398342      0.823581     -0.713057
   O      0.480589     -0.540123      0.907042
   C     -0.080478     -0.277375     -0.189814
   H     -0.346564     -1.194256     -0.817376
   O     -0.048540     -0.037637      4.202662
   H      0.272985      0.020791      3.298046
   H      0.497539      0.576660      4.702219
