    7
 0016.xyz Energy 0.00538221
   O     -0.053300     -0.144372     -1.149665
   O     -0.053052     -0.192352      1.142633
   C      0.104068      0.329492      0.006888
   H      0.448097      1.418729      0.029549
   O     -0.055534      0.015358      3.928914
   H      0.580391     -0.665169      3.688905
   H      0.301161      0.421381      4.724549
