    7
 0018.xyz Energy -0.011873
   O      0.376457      0.460264      0.995917
   O     -0.395561     -0.118745     -1.083907
   C      0.018692     -0.334187      0.086095
   H      0.080520     -1.438916      0.370803
   O     -0.022053     -0.024975      4.756358
   H      0.326494      0.858540      4.604573
   H      0.023569     -0.462091      3.900805
