    7
 0019.xyz Energy -0.000685363
   O      0.888639      0.429556      0.609275
   O     -0.801588     -0.720415     -0.428815
   C     -0.085187      0.284610     -0.176588
   H     -0.366717      1.225527     -0.760302
   O      0.062538     -0.015743      4.168711
   H     -0.577458      0.327406      3.538016
   H     -0.415268     -0.077509      5.001182
