    7
 0020.xyz Energy -0.00780108
   O      0.229483     -0.078668      1.134267
   O      0.117089      0.145911     -1.144738
   C     -0.339129     -0.065798      0.010239
   H     -1.460216     -0.283324      0.044193
   O      0.028772      0.043089      3.980022
   H     -0.714362      0.198743      3.389561
   H      0.257637     -0.882731      3.855124
