    7
 0021.xyz Energy 0.00264493
   O     -0.652109     -0.677072     -0.679516
   O      0.634149      0.392747      0.888273
   C      0.017577      0.278223     -0.204270
   H      0.075625      1.197920     -0.879617
   O      0.031530      0.056019      3.772408
   H     -0.906160     -0.060175      3.592522
   H      0.405658     -0.829077      3.730521
