    7
 0022.xyz Energy -0.000258383
   O      0.554666     -0.418526      0.928760
   O     -0.459238      0.104806     -1.059972
   C     -0.093381      0.306984      0.128388
   H     -0.402033      1.321788      0.552905
   O     -0.056005     -0.033906      3.999941
   H      0.067074      0.892159      4.228800
   H      0.821955     -0.353930      3.772143
