    7
 0025.xyz Energy -0.0158286
   O      0.140043      0.012263      1.151369
   O      0.043610      0.288062     -1.122739
   C     -0.179710     -0.293874     -0.028022
   H     -0.773788     -1.265376     -0.120551
   O     -0.024248      0.013783      4.079231
   H     -0.320940     -0.668686      3.469862
   H      0.705846      0.449891      3.629904
