    7
 0026.xyz Energy -0.00410156
   O      1.073796     -0.125291     -0.420330
   O     -1.134705     -0.140187      0.195487
   C      0.059595      0.259777      0.220016
   H      0.256706      1.118548      0.947317
   O     -0.064006      0.013504      3.782671
   H      0.513783     -0.228919      4.512406
   H      0.502245      0.014556      3.005188
