    7
 0028.xyz Energy 0.00180782
   O     -0.495924     -0.909066     -0.522563
   O      0.158981      1.013179      0.541864
   C      0.329710     -0.101873     -0.018883
   H      1.419631     -0.438732     -0.081356
   O     -0.039518      0.051861      3.825922
   H      0.883702     -0.013179      4.087756
   H     -0.256395     -0.810055      3.458242
