    7
 0029.xyz Energy -0.00251378
   O      0.337676      0.017818      1.109537
   O     -0.282920      0.329444     -1.075568
   C     -0.053581     -0.339804     -0.033245
   H     -0.230682     -1.463141     -0.143045
   O     -0.054515     -0.035805      4.845688
   H      0.738069     -0.252148      4.345560
   H      0.127299      0.820522      5.244147
