    7
 0033.xyz Energy 0.00954227
   O     -0.525071      0.983446     -0.320232
   O      0.275052     -0.972365      0.569453
   C      0.244652     -0.010849     -0.243866
   H      1.053383     -0.046621     -1.050080
   O     -0.034132      0.010389      3.845106
   H     -0.340852     -0.409749      4.654136
   H      0.882669      0.244838      4.017244
