    7
 0035.xyz Energy 0.0031352
   O     -0.193423     -1.142232     -0.057509
   O      0.177179      1.108062     -0.293649
   C      0.015896      0.033443      0.343616
   H      0.068429      0.143891      1.479551
   O     -0.024605     -0.058859      3.865286
   H     -0.302599      0.794578      3.519619
   H      0.693178      0.139745      4.473945
