    7
 0042.xyz Energy -0.0345894
   O      0.607000      0.549000      0.263000
   O     -0.895000     -0.355000      1.699000
   C     -0.429000     -0.110000      0.552000
   H     -1.012000     -0.534000     -0.324000
   O      1.139000      1.044000      2.929000
   H      0.315000      0.500000      2.867000
   H      1.279000      1.081000      1.950000
