    7
 0043.xyz Energy -0.0337688
   O      0.607000      0.549000      0.263000
   O     -0.895000     -0.355000      1.699000
   C     -0.429000     -0.110000      0.552000
   H     -1.012000     -0.534000     -0.324000
   O      1.090600      1.009800      2.882280
   H      0.266600      0.465800      2.820280
   H      1.230600      1.046800      1.903280
