    9
 0002.xyz Energy -0.192709
   N     -0.739000      0.105000     -0.724000
   C      0.422000     -0.037000      0.147000
   H     -0.848000     -0.612000     -1.444000
   H     -0.887000      1.035000     -1.122000
   H     -1.626000     -0.028000     -0.150000
   H      1.318000      0.103000     -0.460000
   H      0.401000     -1.039000      0.581000
   H      0.359000      0.726000      0.926000
  Cl     -3.309000     -0.199000      0.520000
