    9
 0020.xyz Energy -0.154236
   N      0.451791      0.310992      0.415384
   C     -0.517159     -0.355980     -0.475496
   H      0.531477      1.313283      0.199049
   H      1.389858     -0.100808      0.324113
   H      0.172296      0.228553      1.401795
   H     -0.166152     -0.233732     -1.501866
   H     -1.487336      0.123704     -0.332591
   H     -0.555883     -1.410776     -0.196787
  Cl      0.000000      0.000000      4.060000
