    9
 0022.xyz Energy -0.155195
   N     -0.151087      0.173191      0.648500
   C      0.172961     -0.198249     -0.742329
   H      0.625172      0.682520      1.090930
   H     -0.343361     -0.657836      1.223222
   H     -0.982068      0.777827      0.690999
   H      1.058580     -0.836030     -0.719931
   H      0.365641      0.721781     -1.297469
   H     -0.685423     -0.732636     -1.153890
  Cl      0.000000      0.000000      4.080000
