    9
 0024.xyz Energy -0.139325
   N      0.665133      0.175769      0.008857
   C     -0.761371     -0.201200     -0.010152
   H      0.939746      0.647469     -0.862822
   H      1.269380     -0.649398      0.117782
   H      0.873126      0.816390      0.786200
   H     -0.916770     -0.877752     -0.852598
   H     -1.346793      0.712743     -0.127411
   H     -0.989056     -0.694480      0.936743
  Cl      0.000000      0.000000      3.960000
