    9
 0026.xyz Energy -0.106742
   N      0.178827      0.117839     -0.653842
   C     -0.204704     -0.134902      0.748444
   H     -0.235177     -0.578908     -1.286996
   H      1.199348      0.079235     -0.776018
   H     -0.135412      1.045841     -0.966867
   H      0.155186     -1.129312      1.019024
   H     -1.293177     -0.080569      0.811966
   H      0.263460      0.633685      1.366402
  Cl      0.000000      0.000000      4.840000
