    9
 0028.xyz Energy -0.16725
   N      0.045651      0.021986      0.686154
   C     -0.052260     -0.025180     -0.785434
   H      0.206016     -0.913919      1.081254
   H     -0.816559      0.392131      1.107421
   H      0.822069      0.623799      0.990973
   H     -0.889886     -0.675778     -1.043679
   H      0.888138     -0.424500     -1.170085
   H     -0.221433      0.992793     -1.141644
  Cl      0.000000      0.000000      3.760000
