    9
 0029.xyz Energy -0.157894
   N     -0.111994      0.021892      0.678493
   C      0.128185     -0.025057     -0.776667
   H     -1.090189     -0.201491      0.904262
   H      0.088629      0.955130      1.061503
   H      0.482704     -0.652157      1.178406
   H     -0.528850      0.708638     -1.247392
   H     -0.101337     -1.035394     -1.120614
   H      1.177888      0.219646     -0.949925
  Cl      0.000000      0.000000      4.020000
