    9
 0030.xyz Energy -0.143892
   N      0.604977     -0.298725     -0.134689
   C     -0.692509      0.341958      0.154168
   H      1.273789      0.372720     -0.534174
   H      0.500763     -1.069382     -0.807822
   H      1.028875     -0.687753      0.717888
   H     -1.088557      0.732446     -0.785115
   H     -0.515537      1.146644      0.870355
   H     -1.354324     -0.418276      0.573473
  Cl      0.000000      0.000000      3.720000
