    9
 0033.xyz Energy -0.106018
   N     -0.001938      0.591665     -0.351146
   C      0.002223     -0.677280      0.401942
   H     -0.080591      0.426550     -1.363217
   H      0.862587      1.125344     -0.190949
   H     -0.790964      1.189961     -0.072939
   H      0.858144     -1.263904      0.063035
   H     -0.936070     -1.193887      0.191030
   H      0.087344     -0.435532      1.463114
  Cl      0.000000      0.000000      4.980000
