    9
 0034.xyz Energy -0.126706
   N     -0.033778      0.417273     -0.546001
   C      0.038667     -0.477638      0.625011
   H      0.432741      1.314985     -0.361040
   H     -1.008825      0.622088     -0.801371
   H      0.419488     -0.003513     -1.367834
   H     -0.456745      0.022969      1.459005
   H      1.093115     -0.655813      0.844450
   H     -0.471147     -1.407723      0.366546
  Cl      0.000000      0.000000      4.080000
