    9
 0038.xyz Energy -0.147095
   N      0.044395      0.050584      0.684723
   C     -0.050818     -0.057889     -0.783797
   H     -0.211042      0.992828      1.008244
   H      0.999960     -0.140997      1.013468
   H     -0.583148     -0.617549      1.151314
   H      0.634799      0.672338     -1.217716
   H     -1.083004      0.155336     -1.068204
   H      0.231051     -1.075073     -1.062476
  Cl      0.000000      0.000000      4.300000
