    9
 0039.xyz Energy -0.136099
   N     -0.081593      0.347347      0.588275
   C      0.093399     -0.397593     -0.673400
   H     -0.445217      1.294045      0.417169
   H      0.809450      0.444603      1.092719
   H     -0.742288     -0.129138      1.216258
   H      0.801678      0.156055     -1.292593
   H     -0.882081     -0.466442     -1.158642
   H      0.479350     -1.388232     -0.425508
  Cl      0.000000      0.000000      4.540000
