    9
 0040.xyz Energy -0.123746
   N     -0.510846     -0.024941      0.460205
   C      0.584758      0.028537     -0.526797
   H     -0.752473     -0.995513      0.699671
   H     -1.362154      0.425996      0.099910
   H     -0.252653      0.454073      1.333018
   H      0.250633     -0.493777     -1.425204
   H      1.454556     -0.463405     -0.087243
   H      0.792973      1.079166     -0.737982
  Cl      0.000000      0.000000      4.840000
