    9
 0041.xyz Energy -0.168647
   N     -0.072172     -0.065024      0.681130
   C      0.082628      0.074433     -0.779682
   H      0.740308      0.317649      1.182305
   H     -0.168277     -1.051675      0.955290
   H     -0.906591      0.432643      1.018757
   H      0.980316     -0.472452     -1.074062
   H      0.179290      1.138173     -1.005239
   H     -0.806719     -0.347694     -1.251532
  Cl      0.000000      0.000000      3.720000
