    9
 0042.xyz Energy -0.130492
   N     -0.602416      0.131005     -0.305462
   C      0.689587     -0.149951      0.349651
   H     -0.468173      0.501255     -1.255531
   H     -1.147431      0.824991      0.222952
   H     -1.176068     -0.719205     -0.382830
   H      1.248338      0.786376      0.401379
   H      1.217359     -0.889155     -0.255985
   H      0.480205     -0.537920      1.348357
  Cl      0.000000      0.000000      4.060000
