    9
 0043.xyz Energy -0.149337
   N     -0.355899      0.558165      0.187515
   C      0.407399     -0.638928     -0.214634
   H      0.016719      0.966318      1.054870
   H     -1.346094      0.333568      0.351680
   H     -0.319950      1.286646     -0.537704
   H      0.330750     -1.370389      0.592011
   H      1.444266     -0.336274     -0.372964
   H     -0.034583     -1.022819     -1.136075
  Cl      0.000000      0.000000      3.860000
