    9
 0044.xyz Energy -0.126442
   N      0.666477      0.017250     -0.169957
   C     -0.762907     -0.019753      0.194560
   H      1.196877     -0.716167      0.318421
   H      1.092097      0.921300      0.073811
   H      0.799473     -0.125090     -1.179893
   H     -0.836807      0.136566      1.272377
   H     -1.154359     -0.998907     -0.087899
   H     -1.268028      0.777959     -0.353421
  Cl      0.000000      0.000000      4.260000
