    9
 0046.xyz Energy -0.135625
   N      0.374565      0.279901      0.504709
   C     -0.428750     -0.320400     -0.577744
   H      1.206344      0.757447      0.133453
   H      0.698887     -0.433717      1.170625
   H     -0.169575      0.973290      1.034844
   H      0.201190     -1.043201     -1.099587
   H     -0.741113      0.483500     -1.247023
   H     -1.291805     -0.809012     -0.121490
  Cl      0.000000      0.000000      4.480000
