    9
 0048.xyz Energy -0.131023
   N     -0.310358     -0.450349     -0.417419
   C      0.355258      0.515521      0.477809
   H     -0.634504      0.002100     -1.282264
   H     -1.129877     -0.876985      0.034522
   H      0.326193     -1.212136     -0.686496
   H     -0.368203      1.294454      0.725710
   H      1.211734      0.930901     -0.056670
   H      0.674228     -0.023103      1.372190
  Cl      0.000000      0.000000      3.960000
