    9
 0050.xyz Energy -0.121478
   N     -0.028407      0.292801     -0.621961
   C      0.032530     -0.335172      0.711950
   H      0.598127     -0.178989     -1.287248
   H      0.249688      1.282274     -0.583393
   H     -0.979539      0.253650     -1.011492
   H      1.061493     -0.261711      1.068914
   H     -0.272228     -1.377919      0.604417
   H     -0.650410      0.207759      1.368146
  Cl      0.000000      0.000000      4.240000
