    9
 0051.xyz Energy -0.119467
   N      0.452242     -0.186375     -0.483856
   C     -0.517678      0.213354      0.553860
   H      0.915333      0.632554     -0.899357
   H     -0.006107     -0.702628     -1.246272
   H      1.186442     -0.793716     -0.096549
   H     -1.266543      0.852584      0.082508
   H      0.027433      0.753854      1.330052
   H     -0.972384     -0.695057      0.953618
  Cl      0.000000      0.000000      4.340000
