    9
 0054.xyz Energy -0.12874
   N      0.677090      0.087129      0.085628
   C     -0.775060     -0.099738     -0.098004
   H      1.006254     -0.361528      0.950553
   H      0.922475      1.084392      0.141600
   H      1.208926     -0.319035     -0.695462
   H     -1.280579      0.350205      0.758494
   H     -0.969820     -1.172658     -0.149695
   H     -1.060668      0.396335     -1.027581
  Cl      0.000000      0.000000      4.340000
