    9
 0057.xyz Energy 0.499188
   N     -0.741000      0.105000     -0.723000
   C      0.420000     -0.038000      0.148000
   H     -0.850000     -0.612000     -1.443000
   H     -0.889000      1.035000     -1.121000
   H     -1.628000     -0.028000     -0.149000
   H      1.315000      0.103000     -0.460000
   H      0.400000     -1.039000      0.581000
   H      0.358000      0.725000      0.926000
  Cl     -2.368400     -0.103200      0.145800
