    6
 0003.xyz Energy 0.000822738
   O      0.012043      0.025389     -0.113575
   H     -0.472592      0.525785      0.549640
   H      0.376226     -0.728943      0.359157
   O     -0.010965      0.009962      3.516058
   H     -0.643613     -0.369715      2.899031
   H      0.731351      0.290000      2.972305
