    6
 0005.xyz Energy 0.00397508
   O     -0.004937     -0.116892     -0.000987
   H      0.782430      0.435388      0.011730
   H     -0.742925      0.499944     -0.003829
   O      0.019305     -0.084296      2.978807
   H      0.668243      0.355162      2.421243
   H     -0.822716      0.319347      2.748165
