    6
 0006.xyz Energy -0.00235461
   O      0.091769      0.044753     -0.057136
   H     -0.517901      0.508210      0.524783
   H     -0.216410     -0.866311     -0.067595
   O     -0.110866      0.023545      3.629041
   H      0.674958      0.150270      4.168989
   H      0.212159     -0.338672      2.798634
