    6
 0008.xyz Energy -0.00362151
   O     -0.108367     -0.042507     -0.011779
   H      0.151503      0.878384      0.085942
   H      0.715619     -0.538255      0.008308
   O      0.056970     -0.078427      3.545518
   H     -0.080895      0.854063      3.736767
   H     -0.374961     -0.226510      2.698978
