    6
 0013.xyz Energy 0.00485211
   O     -0.006324     -0.116388      0.010141
   H      0.787586      0.424497     -0.037517
   H     -0.736982      0.506805     -0.043629
   O     -0.089539      0.001230      2.735301
   H      0.519376     -0.722880      2.562070
   H      0.197088      0.713038      2.155390
