    6
 0014.xyz Energy 0.00146709
   O     -0.021928     -0.084981      0.077372
   H      0.742935      0.497522      0.049156
   H     -0.567472      0.182468     -0.668265
   O     -0.095480      0.032635      3.099224
   H      0.380893     -0.799930      3.170116
   H      0.383111      0.538791      2.435990
