    6
 0015.xyz Energy 0.0017376
   O      0.062873     -0.008516      0.098303
   H     -0.395207     -0.715203     -0.366323
   H     -0.107882      0.783347     -0.420270
   O     -0.089098     -0.029359      3.030082
   H      0.092736     -0.358106      3.915511
   H      0.620203      0.593030      2.843953
