    6
 0017.xyz Energy -0.00609531
   O     -0.702000     -0.056000      0.010000
   H     -1.022000      0.847000     -0.011000
   H      0.258000      0.042000      0.005000
   O      2.685921      0.023447      0.000053
   H      3.061921     -0.415553      0.766053
   H      3.057921     -0.452553     -0.745947
