    6
 0019.xyz Energy -0.00553363
   O     -0.702000     -0.056000      0.010000
   H     -1.022000      0.847000     -0.011000
   H      0.258000      0.042000      0.005000
   O      2.789237      0.022658     -0.000158
   H      3.165237     -0.416342      0.765842
   H      3.161237     -0.453342     -0.746158
