    6
 0020.xyz Energy -0.00558878
   O     -0.702000     -0.056000      0.010000
   H     -1.022000      0.847000     -0.011000
   H      0.258000      0.042000      0.005000
   O      2.778905      0.022737     -0.000137
   H      3.154905     -0.416263      0.765863
   H      3.150905     -0.453263     -0.746137
