    6
 0021.xyz Energy -0.00586772
   O     -0.702000     -0.056000      0.010000
   H     -1.022000      0.847000     -0.011000
   H      0.258000      0.042000      0.005000
   O      2.727247      0.023132     -0.000032
   H      3.103247     -0.415868      0.765968
   H      3.099247     -0.452868     -0.746032
