    6
 0024.xyz Energy -0.00790615
   O     -0.702000     -0.056000      0.010000
   H     -1.022000      0.847000     -0.011000
   H      0.258000      0.042000      0.005000
   O      2.324316      0.026211      0.000789
   H      2.700316     -0.412789      0.766789
   H      2.696316     -0.449789     -0.745211
