    6
 0025.xyz Energy -0.00790728
   O     -0.702000     -0.056000      0.010000
   H     -1.022000      0.847000     -0.011000
   H      0.258000      0.042000      0.005000
   O      2.107353      0.027868      0.001232
   H      2.483353     -0.411132      0.767232
   H      2.479353     -0.448132     -0.744768
