    6
 0027.xyz Energy -2.25119e-06
   O     -0.238097     -0.306503      0.038027
   H     -0.462792      0.572784     -0.280579
   H      0.700889     -0.266281      0.242552
   O     -0.212453      0.156760     16.913790
   H      0.446284     -0.540239     16.987282
   H     -0.233831      0.383478     15.979293
