    6
 0041.xyz Energy -1.6494e-06
   O     -0.128297     -0.077031     -0.360120
   H      0.785155     -0.009742     -0.066484
   H     -0.656858      0.086773      0.426604
   O      0.360728      0.067034     34.752260
   H     -0.079942      0.494702     35.492566
   H     -0.280787     -0.561735     34.408383
