    6
 0043.xyz Energy -4.6909e-07
   O     -0.128297     -0.077031     -0.360120
   H      0.785155     -0.009742     -0.066484
   H     -0.656858      0.086773      0.426604
   O      0.360728      0.067034     53.360260
   H     -0.079942      0.494702     54.100566
   H     -0.280787     -0.561735     53.016383
