    6
 0044.xyz Energy -2.8923e-07
   O     -0.128297     -0.077031     -0.360120
   H      0.785155     -0.009742     -0.066484
   H     -0.656858      0.086773      0.426604
   O      0.360728      0.067034     62.866927
   H     -0.079942      0.494702     63.607233
   H     -0.280787     -0.561735     62.523049
