    6
 0046.xyz Energy -0.00195685
   O     -1.410000      0.086000      0.000000
   H     -1.884000     -0.750000      0.000000
   H     -2.082000      0.772000      0.000000
   O      1.121920     -0.159880      0.000000
   H      0.166920     -0.009880      0.000000
   H      1.511920      0.717120      0.000000
