    6
 0048.xyz Energy -0.000708495
   O     -1.410000      0.086000      0.000000
   H     -1.884000     -0.750000      0.000000
   H     -2.082000      0.772000      0.000000
   O      1.091000     -0.158000      0.000000
   H      0.136000     -0.008000      0.000000
   H      1.481000      0.719000      0.000000
