    6
 0060.xyz Energy -0.00647416
   O     -1.410000      0.086000      0.000000
   H     -1.884000     -0.750000      0.000000
   H     -2.082000      0.772000      0.000000
   O      1.333000     -0.145000      0.000000
   H      0.378000      0.005000      0.000000
   H      1.723000      0.732000      0.000000
