    6
 0061.xyz Energy -0.00555543
   O     -1.410000      0.086000      0.000000
   H     -1.884000     -0.750000      0.000000
   H     -2.082000      0.772000      0.000000
   O      1.261480     -0.141760      0.000000
   H      0.306480      0.008240      0.000000
   H      1.651480      0.735240      0.000000
