    6
 0062.xyz Energy -0.00305527
   O     -1.410000      0.086000      0.000000
   H     -1.884000     -0.750000      0.000000
   H     -2.082000      0.772000      0.000000
   O      1.154200     -0.136900      0.000000
   H      0.199200      0.013100      0.000000
   H      1.544200      0.740100      0.000000
