    6
 0064.xyz Energy 1.162e-07
   O     -0.059164      0.049330      0.382291
   H     -0.179545     -0.756360     -0.129095
   H      0.238709      0.707031     -0.253197
   O      0.306105      0.168592     82.927803
   H      0.143221     -0.772581     83.040968
   H     -0.449326      0.603988     83.333880
