    6
 0071.xyz Energy -1.06276e-06
   O     -0.013662      0.036843      0.387990
   H     -0.227959      0.704024     -0.270864
   H      0.241621     -0.740867     -0.117126
   O      0.156966     -0.280522     44.653837
   H     -0.635498     -0.337442     44.111708
   H      0.478532      0.617965     44.533590
