    6
 0080.xyz Energy -2.53084e-05
   O      0.001082     -0.080694     -0.381533
   H      0.349667     -0.623234      0.332107
   H     -0.350749      0.703928      0.049426
   O     -0.123147     -0.122137     16.790883
   H     -0.560160     -0.240576     17.639491
   H      0.683307      0.362713     16.990120
