    6
 0082.xyz Energy -0.00270237
   O     -1.629000     -0.041000      0.371000
   H     -0.698000     -0.092000      0.093000
   H     -2.067000     -0.735000     -0.137000
   O      0.827920      0.006940     -0.200760
   H      1.061920      0.891940     -0.510760
   H      1.342920     -0.105060      0.609240
