    6
 0086.xyz Energy -1.48117e-06
   O      0.001082     -0.080694     -0.381533
   H      0.349667     -0.623234      0.332107
   H     -0.350749      0.703928      0.049426
   O     -0.123147     -0.122137     44.094883
   H     -0.560160     -0.240576     44.943491
   H      0.683307      0.362713     44.294120
