    6
 0089.xyz Energy -3.3653e-07
   O      0.001082     -0.080694     -0.381533
   H      0.349667     -0.623234      0.332107
   H     -0.350749      0.703928      0.049426
   O     -0.123147     -0.122137     72.614883
   H     -0.560160     -0.240576     73.463491
   H      0.683307      0.362713     72.814120
