    6
 0098.xyz Energy -5.5298e-07
   O      0.025327     -0.077443     -0.381368
   H      0.043963     -0.706724      0.345820
   H     -0.069290      0.784167      0.035547
   O     -0.085770     -0.106070     62.977612
   H      0.514741     -0.543959     63.588171
   H     -0.428972      0.650029     63.463071
