    6
 0101.xyz Energy -1.7637e-07
   O      0.025327     -0.077443     -0.381368
   H      0.043963     -0.706724      0.345820
   H     -0.069290      0.784167      0.035547
   O     -0.085770     -0.106070     92.308278
   H      0.514741     -0.543959     92.918838
   H     -0.428972      0.650029     92.793737
