    6
 0115.xyz Energy 6.103e-07
   O      0.087675     -0.030621     -0.378755
   H      0.479344     -0.516033      0.353443
   H     -0.567019      0.546655      0.025312
   O      0.013814     -0.307192     53.818349
   H     -0.643162      0.395189     53.804677
   H      0.629348     -0.087997     53.112505
