    6
 0116.xyz Energy 3.7665e-07
   O      0.087675     -0.030621     -0.378755
   H      0.479344     -0.516033      0.353443
   H     -0.567019      0.546655      0.025312
   O      0.013814     -0.307192     63.325016
   H     -0.643162      0.395189     63.311344
   H      0.629348     -0.087997     62.619172
