    6
 0118.xyz Energy 1.7003e-07
   O      0.087675     -0.030621     -0.378755
   H      0.479344     -0.516033      0.353443
   H     -0.567019      0.546655      0.025312
   O      0.013814     -0.307192     82.743682
   H     -0.643162      0.395189     82.730010
   H      0.629348     -0.087997     82.037838
