    6
 0123.xyz Energy 1.6882e-07
   O      0.314998      0.213808      0.084515
   H     -0.572579      0.530563     -0.107884
   H      0.257581     -0.744371      0.023369
   O     -0.128416     -0.059224     35.181224
   H      0.710325      0.327669     35.449498
   H     -0.581909     -0.268445     36.003243
