    6
 0132.xyz Energy -6.78681e-06
   O     -0.233975      0.014626      0.311644
   H      0.654632     -0.350401      0.263931
   H     -0.420656      0.335776     -0.575575
   O      0.038983     -0.132565     26.469141
   H     -0.034696     -0.651675     25.662767
   H     -0.004287      0.784239     26.181493
