    6
 0135.xyz Energy -7.8019e-07
   O     -0.233975      0.014626      0.311644
   H      0.654632     -0.350401      0.263931
   H     -0.420656      0.335776     -0.575575
   O      0.038983     -0.132565     54.178474
   H     -0.034696     -0.651675     53.372100
   H     -0.004287      0.784239     53.890826
