    6
 0138.xyz Energy -2.1516e-07
   O     -0.233975      0.014626      0.311644
   H      0.654632     -0.350401      0.263931
   H     -0.420656      0.335776     -0.575575
   O      0.038983     -0.132565     83.103808
   H     -0.034696     -0.651675     82.297433
   H     -0.004287      0.784239     82.816160
