    6
 0142.xyz Energy -4.03787e-06
   O      0.041239      0.060100     -0.383103
   H      0.413914      0.581330      0.334237
   H     -0.455152     -0.641429      0.048866
   O      0.254736      0.218946     25.975001
   H      0.428398     -0.606062     26.437977
   H     -0.683133      0.387116     26.106394
