    6
 0143.xyz Energy -1.61079e-06
   O      0.041239      0.060100     -0.383103
   H      0.413914      0.581330      0.334237
   H     -0.455152     -0.641429      0.048866
   O      0.254736      0.218946     35.076334
   H      0.428398     -0.606062     35.539311
   H     -0.683133      0.387116     35.207727
