    6
 0144.xyz Energy -7.9022e-07
   O      0.041239      0.060100     -0.383103
   H      0.413914      0.581330      0.334237
   H     -0.455152     -0.641429      0.048866
   O      0.254736      0.218946     44.312779
   H      0.428398     -0.606062     44.775755
   H     -0.683133      0.387116     44.444171
