    6
 0145.xyz Energy -4.4116e-07
   O      0.041239      0.060100     -0.383103
   H      0.413914      0.581330      0.334237
   H     -0.455152     -0.641429      0.048866
   O      0.254736      0.218946     53.684334
   H      0.428398     -0.606062     54.147311
   H     -0.683133      0.387116     53.815727
