    6
 0148.xyz Energy -1.1959e-07
   O      0.041239      0.060100     -0.383103
   H      0.413914      0.581330      0.334237
   H     -0.455152     -0.641429      0.048866
   O      0.254736      0.218946     82.609668
   H      0.428398     -0.606062     83.072644
   H     -0.683133      0.387116     82.741060
