    6
 0151.xyz Energy 1.86644e-05
   O      0.244497      0.273761     -0.131744
   H      0.360651     -0.293744      0.636104
   H     -0.605148      0.019983     -0.504360
   O      0.041077      0.265438     16.890683
   H      0.699496     -0.361550     16.576815
   H     -0.740573      0.096113     16.356364
