    6
 0153.xyz Energy 1.99944e-06
   O      0.244497      0.273761     -0.131744
   H      0.360651     -0.293744      0.636104
   H     -0.605148      0.019983     -0.504360
   O      0.041077      0.265438     34.958239
   H      0.699496     -0.361550     34.644370
   H     -0.740573      0.096113     34.423920
