    6
 0156.xyz Energy 3.3206e-07
   O      0.244497      0.273761     -0.131744
   H      0.360651     -0.293744      0.636104
   H     -0.605148      0.019983     -0.504360
   O      0.041077      0.265438     63.072906
   H      0.699496     -0.361550     62.759037
   H     -0.740573      0.096113     62.538586
