    6
 0157.xyz Energy 2.1577e-07
   O      0.244497      0.273761     -0.131744
   H      0.360651     -0.293744      0.636104
   H     -0.605148      0.019983     -0.504360
   O      0.041077      0.265438     72.714683
   H      0.699496     -0.361550     72.400815
   H     -0.740573      0.096113     72.180364
