    6
 0160.xyz Energy 8.79171e-05
   O      0.160128      0.312797     -0.169108
   H      0.527996     -0.220447      0.541855
   H     -0.688124     -0.092350     -0.372747
   O      0.365180     -0.069214      8.143944
   H     -0.071721     -0.415322      7.360062
   H     -0.293460      0.484536      8.573709
