    6
 0162.xyz Energy 2.37943e-06
   O      0.160128      0.312797     -0.169108
   H      0.527996     -0.220447      0.541855
   H     -0.688124     -0.092350     -0.372747
   O      0.365180     -0.069214     25.941277
   H     -0.071721     -0.415322     25.157396
   H     -0.293460      0.484536     26.371042
