    6
 0163.xyz Energy 9.5053e-07
   O      0.160128      0.312797     -0.169108
   H      0.527996     -0.220447      0.541855
   H     -0.688124     -0.092350     -0.372747
   O      0.365180     -0.069214     35.042611
   H     -0.071721     -0.415322     34.258729
   H     -0.293460      0.484536     35.472376
