    6
 0170.xyz Energy -7.85779e-05
   O      0.202494     -0.321414      0.088147
   H     -0.365544     -0.178787     -0.674830
   H      0.163050      0.500201      0.586683
   O      0.228082      0.270752      7.728882
   H      0.300815     -0.098287      8.614129
   H     -0.528897     -0.172465      7.334314
