    6
 0171.xyz Energy -4.3143e-06
   O      0.202494     -0.321414      0.088147
   H     -0.365544     -0.178787     -0.674830
   H      0.163050      0.500201      0.586683
   O      0.228082      0.270752     16.559993
   H      0.300815     -0.098287     17.445240
   H     -0.528897     -0.172465     16.165425
