    6
 0174.xyz Energy -1.335e-07
   O      0.202494     -0.321414      0.088147
   H     -0.365544     -0.178787     -0.674830
   H      0.163050      0.500201      0.586683
   O      0.228082      0.270752     43.863993
   H      0.300815     -0.098287     44.749240
   H     -0.528897     -0.172465     43.469425
