    6
 0181.xyz Energy 2.06135e-06
   O      0.177595      0.061635      0.341674
   H     -0.177871      0.722184     -0.260374
   H      0.000276     -0.783820     -0.081300
   O     -0.331388      0.162996     17.080032
   H      0.542766      0.237689     16.685799
   H     -0.211378     -0.400685     17.850100
