    6
 0191.xyz Energy -1.86221e-05
   O     -0.041405      0.002471      0.387763
   H     -0.695645     -0.254617     -0.268758
   H      0.737050      0.252146     -0.119005
   O      0.319720      0.094790     17.371497
   H      0.260413     -0.493222     16.612638
   H     -0.580134      0.398432     17.523837
