    6
 0200.xyz Energy -0.000119412
   O      0.102454     -0.208072     -0.313512
   H     -0.628784     -0.377845      0.287830
   H      0.526331      0.585918      0.025681
   O     -0.269100     -0.157220      7.412860
   H     -0.235631     -0.195597      8.373355
   H      0.504732      0.352818      7.155589
