    6
 0202.xyz Energy -3.91281e-06
   O      0.102454     -0.208072     -0.313512
   H     -0.628784     -0.377845      0.287830
   H      0.526331      0.585918      0.025681
   O     -0.269100     -0.157220     25.210193
   H     -0.235631     -0.195597     26.170688
   H      0.504732      0.352818     24.952922
