    6
 0205.xyz Energy -4.5666e-07
   O      0.102454     -0.208072     -0.313512
   H     -0.628784     -0.377845      0.287830
   H      0.526331      0.585918      0.025681
   O     -0.269100     -0.157220     52.919527
   H     -0.235631     -0.195597     53.880022
   H      0.504732      0.352818     52.662255
