    6
 0207.xyz Energy -1.8433e-07
   O      0.102454     -0.208072     -0.313512
   H     -0.628784     -0.377845      0.287830
   H      0.526331      0.585918      0.025681
   O     -0.269100     -0.157220     72.067971
   H     -0.235631     -0.195597     73.028466
   H      0.504732      0.352818     71.810700
