    6
 0210.xyz Energy -0.000161391
   O      0.013427      0.081725      0.381079
   H     -0.206846      0.680995     -0.338294
   H      0.193419     -0.762720     -0.042784
   O      0.328169     -0.109115      8.535659
   H     -0.564508     -0.425253      8.703970
   H      0.236339      0.534368      7.826688
