    6
 0211.xyz Energy -1.60909e-05
   O      0.013427      0.081725      0.381079
   H     -0.206846      0.680995     -0.338294
   H      0.193419     -0.762720     -0.042784
   O      0.328169     -0.109115     17.366770
   H     -0.564508     -0.425253     17.535081
   H      0.236339      0.534368     16.657799
