    6
 0223.xyz Energy 3.08887e-06
   O     -0.008557     -0.167181      0.352218
   H     -0.300521     -0.545930     -0.482318
   H      0.309078      0.713112      0.130100
   O      0.081481      0.029271     35.205877
   H      0.654502      0.251595     35.945717
   H     -0.735983     -0.280866     35.606763
