    6
 0234.xyz Energy -1.5551e-06
   O      0.005525      0.077058      0.382246
   H      0.664799      0.322748     -0.273603
   H     -0.670325     -0.399806     -0.108642
   O     -0.048706      0.139821     44.821209
   H      0.412312      0.559215     44.088601
   H     -0.363606     -0.699036     44.471493
