    6
 0236.xyz Energy -5.3739e-07
   O      0.005525      0.077058      0.382246
   H      0.664799      0.322748     -0.273603
   H     -0.670325     -0.399806     -0.108642
   O     -0.048706      0.139821     63.699431
   H      0.412312      0.559215     62.966823
   H     -0.363606     -0.699036     63.349716
