    6
 0241.xyz Energy 1.16748e-05
   O     -0.189773      0.164547     -0.298314
   H      0.667577     -0.270950     -0.319233
   H     -0.477805      0.106403      0.617547
   O     -0.239313      0.307725     16.843073
   H      0.078091     -0.212718     16.099071
   H      0.161222     -0.095007     17.619297
