    6
 0242.xyz Energy 3.04324e-06
   O     -0.189773      0.164547     -0.298314
   H      0.667577     -0.270950     -0.319233
   H     -0.477805      0.106403      0.617547
   O     -0.239313      0.307725     25.809295
   H      0.078091     -0.212718     25.065294
   H      0.161222     -0.095007     26.585519
