    6
 0245.xyz Energy 3.1951e-07
   O     -0.189773      0.164547     -0.298314
   H      0.667577     -0.270950     -0.319233
   H     -0.477805      0.106403      0.617547
   O     -0.239313      0.307725     53.518629
   H      0.078091     -0.212718     52.774627
   H      0.161222     -0.095007     54.294852
