    6
 0246.xyz Energy 1.9377e-07
   O     -0.189773      0.164547     -0.298314
   H      0.667577     -0.270950     -0.319233
   H     -0.477805      0.106403      0.617547
   O     -0.239313      0.307725     63.025295
   H      0.078091     -0.212718     62.281294
   H      0.161222     -0.095007     63.801519
