    6
 0248.xyz Energy 8.545e-08
   O     -0.189773      0.164547     -0.298314
   H      0.667577     -0.270950     -0.319233
   H     -0.477805      0.106403      0.617547
   O     -0.239313      0.307725     82.443962
   H      0.078091     -0.212718     81.699960
   H      0.161222     -0.095007     83.220186
