    6
 0250.xyz Energy 0.000201644
   O      0.111876     -0.046432     -0.370686
   H      0.581496     -0.324589      0.421293
   H     -0.693372      0.371021     -0.050607
   O     -0.278086     -0.040217      8.156641
   H     -0.373970     -0.118713      7.202813
   H      0.652056      0.158929      8.299188
