    6
 0252.xyz Energy 5.50613e-06
   O      0.111876     -0.046432     -0.370686
   H      0.581496     -0.324589      0.421293
   H     -0.693372      0.371021     -0.050607
   O     -0.278086     -0.040217     25.953975
   H     -0.373970     -0.118713     25.000146
   H      0.652056      0.158929     26.096521
