    6
 0259.xyz Energy 1.1399e-07
   O      0.111876     -0.046432     -0.370686
   H      0.581496     -0.324589      0.421293
   H     -0.693372      0.371021     -0.050607
   O     -0.278086     -0.040217     92.500641
   H     -0.373970     -0.118713     91.546813
   H      0.652056      0.158929     92.643188
