    6
 0260.xyz Energy -8.73877e-05
   O      0.062017     -0.262159      0.281969
   H     -0.710564      0.298542      0.164177
   H      0.648547     -0.036383     -0.446146
   O      0.228599     -0.142726      8.638979
   H      0.033470      0.781114      8.455713
   H     -0.262070     -0.638388      7.976630
