    6
 0266.xyz Energy -2.1326e-07
   O      0.062017     -0.262159      0.281969
   H     -0.710564      0.298542      0.164177
   H      0.648547     -0.036383     -0.446146
   O      0.228599     -0.142726     63.652312
   H      0.033470      0.781114     63.469046
   H     -0.262070     -0.638388     62.989963
