    6
 0272.xyz Energy -1.68102e-06
   O     -0.079631     -0.162035      0.345665
   H      0.631520      0.451018      0.136922
   H     -0.551889     -0.288984     -0.482586
   O     -0.358911     -0.000034     26.206797
   H      0.040574      0.676012     25.651353
   H      0.318337     -0.675978     26.304671
