    6
 0274.xyz Energy -3.8577e-07
   O     -0.079631     -0.162035      0.345665
   H      0.631520      0.451018      0.136922
   H     -0.551889     -0.288984     -0.482586
   O     -0.358911     -0.000034     44.544575
   H      0.040574      0.676012     43.989130
   H      0.318337     -0.675978     44.642448
