    6
 0281.xyz Energy 7.9521e-07
   O      0.094860      0.296472      0.234918
   H     -0.475321      0.322894     -0.539252
   H      0.380461     -0.619365      0.304334
   O     -0.344866      0.181048     16.898794
   H      0.102454     -0.143347     16.111510
   H      0.242413     -0.037701     17.628448
