    6
 0285.xyz Energy 3.607e-08
   O      0.094860      0.296472      0.234918
   H     -0.475321      0.322894     -0.539252
   H      0.380461     -0.619365      0.304334
   O     -0.344866      0.181048     53.574349
   H      0.102454     -0.143347     52.787065
   H      0.242413     -0.037701     54.304004
