    6
 0286.xyz Energy 2.243e-08
   O      0.094860      0.296472      0.234918
   H     -0.475321      0.322894     -0.539252
   H      0.380461     -0.619365      0.304334
   O     -0.344866      0.181048     63.081016
   H      0.102454     -0.143347     62.293732
   H      0.242413     -0.037701     63.810670
