    6
 0288.xyz Energy 1.02e-08
   O      0.094860      0.296472      0.234918
   H     -0.475321      0.322894     -0.539252
   H      0.380461     -0.619365      0.304334
   O     -0.344866      0.181048     82.499683
   H      0.102454     -0.143347     81.712399
   H      0.242413     -0.037701     83.229337
