    6
 0298.xyz Energy -7.48e-09
   O     -0.306307     -0.114038     -0.212724
   H      0.590627      0.049151     -0.519352
   H     -0.284320      0.064887      0.732076
   O     -0.314202      0.056316     82.130184
   H      0.527090     -0.331292     81.871087
   H     -0.212888      0.274976     83.061349
