    6
 0300.xyz Energy -6.40214e-05
   O      0.087434      0.140511     -0.353118
   H     -0.362603      0.597837      0.363446
   H      0.275168     -0.738349     -0.010328
   O     -0.334255      0.200598      8.364680
   H     -0.224256     -0.754623      8.340221
   H      0.558511      0.554025      8.421264
