    6
 0302.xyz Energy -8.5064e-07
   O      0.087434      0.140511     -0.353118
   H     -0.362603      0.597837      0.363446
   H      0.275168     -0.738349     -0.010328
   O     -0.334255      0.200598     26.162013
   H     -0.224256     -0.754623     26.137554
   H      0.558511      0.554025     26.218598
