    6
 0309.xyz Energy -9.5e-09
   O      0.087434      0.140511     -0.353118
   H     -0.362603      0.597837      0.363446
   H      0.275168     -0.738349     -0.010328
   O     -0.334255      0.200598     92.708680
   H     -0.224256     -0.754623     92.684221
   H      0.558511      0.554025     92.765264
