    6
 0314.xyz Energy 2.645e-08
   O      0.023236     -0.389145     -0.010317
   H      0.430378      0.204461      0.627657
   H     -0.453614      0.184684     -0.617340
   O     -0.007809     -0.053110     44.103500
   H      0.624115      0.465852     44.609953
   H     -0.616305     -0.412743     44.755834
