    6
 0317.xyz Energy 1.008e-08
   O      0.023236     -0.389145     -0.010317
   H      0.430378      0.204461      0.627657
   H     -0.453614      0.184684     -0.617340
   O     -0.007809     -0.053110     72.623500
   H      0.624115      0.465852     73.129953
   H     -0.616305     -0.412743     73.275834
