    6
 0318.xyz Energy 7.42e-09
   O      0.023236     -0.389145     -0.010317
   H      0.430378      0.204461      0.627657
   H     -0.453614      0.184684     -0.617340
   O     -0.007809     -0.053110     82.400389
   H      0.624115      0.465852     82.906842
   H     -0.616305     -0.412743     83.052723
