    6
 0323.xyz Energy -5.6341e-07
   O      0.182236      0.344510      0.013537
   H      0.053009     -0.277663      0.735579
   H     -0.235245     -0.066847     -0.749116
   O     -0.174876     -0.083729     35.313511
   H      0.048562      0.786511     34.970143
   H      0.126313     -0.702782     34.641796
