    6
 0324.xyz Energy -3.0668e-07
   O      0.182236      0.344510      0.013537
   H      0.053009     -0.277663      0.735579
   H     -0.235245     -0.066847     -0.749116
   O     -0.174876     -0.083729     44.549955
   H      0.048562      0.786511     44.206587
   H      0.126313     -0.702782     43.878240
