    6
 0326.xyz Energy -1.1656e-07
   O      0.182236      0.344510      0.013537
   H      0.053009     -0.277663      0.735579
   H     -0.235245     -0.066847     -0.749116
   O     -0.174876     -0.083729     63.428177
   H      0.048562      0.786511     63.084809
   H      0.126313     -0.702782     62.756462
