    6
 0327.xyz Energy -7.834e-08
   O      0.182236      0.344510      0.013537
   H      0.053009     -0.277663      0.735579
   H     -0.235245     -0.066847     -0.749116
   O     -0.174876     -0.083729     73.069955
   H      0.048562      0.786511     72.726587
   H      0.126313     -0.702782     72.398240
