    6
 0328.xyz Energy -5.488e-08
   O      0.182236      0.344510      0.013537
   H      0.053009     -0.277663      0.735579
   H     -0.235245     -0.066847     -0.749116
   O     -0.174876     -0.083729     82.846844
   H      0.048562      0.786511     82.503476
   H      0.126313     -0.702782     82.175129
