    6
 0331.xyz Energy 1.87272e-05
   O      0.034972     -0.044982      0.385790
   H      0.482993      0.598692     -0.171079
   H     -0.517965     -0.553710     -0.214711
   O      0.024281      0.314778     17.274412
   H     -0.747286     -0.002049     17.753418
   H      0.723005     -0.312729     17.482173
