    6
 0332.xyz Energy 5.11133e-06
   O      0.034972     -0.044982      0.385790
   H      0.482993      0.598692     -0.171079
   H     -0.517965     -0.553710     -0.214711
   O      0.024281      0.314778     26.240634
   H     -0.747286     -0.002049     26.719641
   H      0.723005     -0.312729     26.448395
