    6
 0339.xyz Energy 1.079e-07
   O      0.034972     -0.044982      0.385790
   H      0.482993      0.598692     -0.171079
   H     -0.517965     -0.553710     -0.214711
   O      0.024281      0.314778     92.787300
   H     -0.747286     -0.002049     93.266307
   H      0.723005     -0.312729     92.995062
