    6
 0340.xyz Energy 0.000170355
   O      0.086212      0.004446     -0.380300
   H      0.610278     -0.370147      0.333968
   H     -0.696490      0.365701      0.046332
   O      0.150549      0.305439      8.250439
   H     -0.469755     -0.346732      8.589615
   H      0.319206      0.041293      7.341085
