    6
 0344.xyz Energy 9.6953e-07
   O      0.086212      0.004446     -0.380300
   H      0.610278     -0.370147      0.333968
   H     -0.696490      0.365701      0.046332
   O      0.150549      0.305439     44.385550
   H     -0.469755     -0.346732     44.724726
   H      0.319206      0.041293     43.476196
