    6
 0346.xyz Energy 3.3096e-07
   O      0.086212      0.004446     -0.380300
   H      0.610278     -0.370147      0.333968
   H     -0.696490      0.365701      0.046332
   O      0.150549      0.305439     63.263772
   H     -0.469755     -0.346732     63.602948
   H      0.319206      0.041293     62.354418
