    6
 0349.xyz Energy 1.046e-07
   O      0.086212      0.004446     -0.380300
   H      0.610278     -0.370147      0.333968
   H     -0.696490      0.365701      0.046332
   O      0.150549      0.305439     92.594439
   H     -0.469755     -0.346732     92.933615
   H      0.319206      0.041293     91.685085
