    6
 0350.xyz Energy -0.000244749
   O     -0.109390     -0.139469     -0.347365
   H      0.786455     -0.048866     -0.009140
   H     -0.677065      0.188336      0.356505
   O      0.093773      0.065465      7.907390
   H     -0.648911     -0.445525      8.242731
   H      0.555138      0.380060      8.690535
