    6
 0352.xyz Energy -8.01702e-06
   O     -0.109390     -0.139469     -0.347365
   H      0.786455     -0.048866     -0.009140
   H     -0.677065      0.188336      0.356505
   O      0.093773      0.065465     25.704724
   H     -0.648911     -0.445525     26.040065
   H      0.555138      0.380060     26.487869
