    6
 0356.xyz Energy -5.628e-07
   O     -0.109390     -0.139469     -0.347365
   H      0.786455     -0.048866     -0.009140
   H     -0.677065      0.188336      0.356505
   O      0.093773      0.065465     62.920724
   H     -0.648911     -0.445525     63.256065
   H      0.555138      0.380060     63.703869
