    6
 0360.xyz Energy 0.000255797
   O      0.147473      0.076371      0.352845
   H     -0.774619      0.118914      0.082510
   H      0.627146     -0.195285     -0.435355
   O      0.133104     -0.118324      8.342092
   H      0.604453      0.394142      9.005682
   H     -0.737557     -0.275818      8.719304
