    6
 0364.xyz Energy 1.53786e-06
   O      0.147473      0.076371      0.352845
   H     -0.774619      0.118914      0.082510
   H      0.627146     -0.195285     -0.435355
   O      0.133104     -0.118324     44.477203
   H      0.604453      0.394142     45.140793
   H     -0.737557     -0.275818     44.854415
