    6
 0367.xyz Energy 3.4358e-07
   O      0.147473      0.076371      0.352845
   H     -0.774619      0.118914      0.082510
   H      0.627146     -0.195285     -0.435355
   O      0.133104     -0.118324     72.997203
   H      0.604453      0.394142     73.660793
   H     -0.737557     -0.275818     73.374415
