    6
 0373.xyz Energy -5.7763e-07
   O     -0.066216      0.334096      0.189935
   H      0.785538     -0.053264     -0.032801
   H     -0.719322     -0.280833     -0.157134
   O      0.281923      0.181547     35.487121
   H     -0.005274     -0.731636     35.580706
   H     -0.276650      0.550089     34.796240
