    6
 0378.xyz Energy -3.652e-08
   O     -0.066216      0.334096      0.189935
   H      0.785538     -0.053264     -0.032801
   H     -0.719322     -0.280833     -0.157134
   O      0.281923      0.181547     83.020454
   H     -0.005274     -0.731636     83.114040
   H     -0.276650      0.550089     82.329573
