    6
 0379.xyz Energy -2.557e-08
   O     -0.066216      0.334096      0.189935
   H      0.785538     -0.053264     -0.032801
   H     -0.719322     -0.280833     -0.157134
   O      0.281923      0.181547     92.932454
   H     -0.005274     -0.731636     93.026040
   H     -0.276650      0.550089     92.241573
