    6
 0384.xyz Energy -6.1539e-07
   O     -0.266804     -0.156361      0.237586
   H     -0.040514      0.773756      0.143677
   H      0.307318     -0.617395     -0.381263
   O     -0.185539      0.269153     44.733593
   H     -0.560786     -0.303090     44.057671
   H      0.746325      0.033937     44.771620
