    6
 0385.xyz Energy -3.3998e-07
   O     -0.266804     -0.156361      0.237586
   H     -0.040514      0.773756      0.143677
   H      0.307318     -0.617395     -0.381263
   O     -0.185539      0.269153     54.105149
   H     -0.560786     -0.303090     53.429226
   H      0.746325      0.033937     54.143175
