    6
 0391.xyz Energy -3.65773e-06
   O     -0.386164      0.030237      0.045207
   H      0.266627     -0.183756      0.718420
   H      0.119537      0.153519     -0.763627
   O      0.061312     -0.150868     16.875920
   H     -0.632936     -0.384790     17.499172
   H      0.571624      0.535658     17.315702
