    6
 0399.xyz Energy -2.03e-09
   O     -0.386164      0.030237      0.045207
   H      0.266627     -0.183756      0.718420
   H      0.119537      0.153519     -0.763627
   O      0.061312     -0.150868     92.388809
   H     -0.632936     -0.384790     93.012060
   H      0.571624      0.535658     92.828590
