    6
 0401.xyz Energy 1.1749e-05
   O      0.376257      0.008958      0.102132
   H     -0.386590     -0.054818      0.684490
   H      0.010333      0.045860     -0.786621
   O      0.201647     -0.018827     16.833850
   H      0.188597      0.702750     17.469696
   H     -0.390244     -0.683923     17.197794
