    6
 0408.xyz Energy 1.2532e-07
   O      0.376257      0.008958      0.102132
   H     -0.386590     -0.054818      0.684490
   H      0.010333      0.045860     -0.786621
   O      0.201647     -0.018827     82.434739
   H      0.188597      0.702750     83.070584
   H     -0.390244     -0.683923     82.798683
