    6
 0411.xyz Energy -0.00700782
   O     -0.067000      0.000000      1.494000
   H      0.816000      0.000000      1.866000
   H      0.069000      0.000000      0.539000
   O      0.062067      0.000000     -1.728200
   H     -0.407933     -0.760000     -2.077200
   H     -0.407933      0.760000     -2.077200
