    6
 0413.xyz Energy -0.00724141
   O     -0.067000      0.000000      1.494000
   H      0.816000      0.000000      1.866000
   H      0.069000      0.000000      0.539000
   O      0.062200      0.000000     -1.684600
   H     -0.407800     -0.760000     -2.033600
   H     -0.407800      0.760000     -2.033600
