    6
 0415.xyz Energy -0.00786408
   O     -0.067000      0.000000      1.494000
   H      0.816000      0.000000      1.866000
   H      0.069000      0.000000      0.539000
   O      0.063400      0.000000     -1.292200
   H     -0.406600     -0.760000     -1.641200
   H     -0.406600      0.760000     -1.641200
