    6
 0418.xyz Energy -6.776e-08
   O      0.210647     -0.249029     -0.213758
   H     -0.671993     -0.385913      0.143106
   H      0.461346      0.634942      0.070652
   O     -0.125274     -0.198393     92.371298
   H     -0.242015     -0.429324     93.297681
   H      0.367289      0.627718     92.379388
