    6
 0422.xyz Energy -0.00578364
   O     -0.067000      0.000000      1.494000
   H      0.816000      0.000000      1.866000
   H      0.069000      0.000000      0.539000
   O      0.061396      0.000000     -1.947389
   H     -0.408604     -0.760000     -2.296389
   H     -0.408604      0.760000     -2.296389
