    6
 0423.xyz Energy -0.00508753
   O     -0.067000      0.000000      1.494000
   H      0.816000      0.000000      1.866000
   H      0.069000      0.000000      0.539000
   O      0.060993      0.000000     -2.079378
   H     -0.409007     -0.760000     -2.428378
   H     -0.409007      0.760000     -2.428378
