    6
 0426.xyz Energy -0.00389002
   O     -0.067000      0.000000      1.494000
   H      0.816000      0.000000      1.866000
   H      0.069000      0.000000      0.539000
   O      0.060175      0.000000     -2.346924
   H     -0.409825     -0.760000     -2.695924
   H     -0.409825      0.760000     -2.695924
