    6
 0427.xyz Energy -0.00371335
   O     -0.067000      0.000000      1.494000
   H      0.816000      0.000000      1.866000
   H      0.069000      0.000000      0.539000
   O      0.060033      0.000000     -2.393298
   H     -0.409967     -0.760000     -2.742298
   H     -0.409967      0.760000     -2.742298
