    6
 0430.xyz Energy -0.00367383
   O     -0.067000      0.000000      1.494000
   H      0.816000      0.000000      1.866000
   H      0.069000      0.000000      0.539000
   O      0.060000      0.000000     -2.404000
   H     -0.410000     -0.760000     -2.753000
   H     -0.410000      0.760000     -2.753000
