    6
 0431.xyz Energy -0.00382102
   O     -0.067000      0.000000      1.494000
   H      0.816000      0.000000      1.866000
   H      0.069000      0.000000      0.539000
   O      0.060120      0.000000     -2.364760
   H     -0.409880     -0.760000     -2.713760
   H     -0.409880      0.760000     -2.713760
