    6
 0432.xyz Energy -0.0076906
   O     -1.629000     -0.041000      0.371000
   H     -0.698000     -0.092000      0.093000
   H     -2.067000     -0.735000     -0.137000
   O      1.406300      0.044400     -0.312900
   H      1.640300      0.929400     -0.622900
   H      1.921300     -0.067600      0.497100
