    6
 0433.xyz Energy -0.00704055
   O     -1.629000     -0.041000      0.371000
   H     -0.698000     -0.092000      0.093000
   H     -2.067000     -0.735000     -0.137000
   O      1.528036      0.052291     -0.336382
   H      1.762036      0.937291     -0.646382
   H      2.043036     -0.059709      0.473618
