    6
 0434.xyz Energy -0.00673967
   O     -1.629000     -0.041000      0.371000
   H     -0.698000     -0.092000      0.093000
   H     -2.067000     -0.735000     -0.137000
   O      1.580209      0.055673     -0.346445
   H      1.814209      0.940673     -0.656445
   H      2.095209     -0.056327      0.463555
