    6
 0435.xyz Energy -0.00684064
   O     -1.629000     -0.041000      0.371000
   H     -0.698000     -0.092000      0.093000
   H     -2.067000     -0.735000     -0.137000
   O      1.562818      0.054545     -0.343091
   H      1.796818      0.939545     -0.653091
   H      2.077818     -0.057455      0.466909
