    6
 0437.xyz Energy -0.00805632
   O     -1.629000     -0.041000      0.371000
   H     -0.698000     -0.092000      0.093000
   H     -2.067000     -0.735000     -0.137000
   O      1.319345      0.038764     -0.296127
   H      1.553345      0.923764     -0.606127
   H      1.834345     -0.073236      0.513873
