    6
 0440.xyz Energy -0.00807052
   O     -0.702000     -0.056000      0.010000
   H     -1.022000      0.847000     -0.011000
   H      0.258000      0.042000      0.005000
   O      2.260260      0.026700      0.000920
   H      2.636260     -0.412300      0.766920
   H      2.632260     -0.449300     -0.745080
