    6
 0441.xyz Energy -0.00800425
   O     -0.702000     -0.056000      0.010000
   H     -1.022000      0.847000     -0.011000
   H      0.258000      0.042000      0.005000
   O      2.290707      0.026467      0.000858
   H      2.666707     -0.412533      0.766858
   H      2.662707     -0.449533     -0.745142
