    6
 0445.xyz Energy -0.00715855
   O     -1.629000     -0.041000      0.371000
   H     -0.698000     -0.092000      0.093000
   H     -2.067000     -0.735000     -0.137000
   O      1.507167      0.050938     -0.332356
   H      1.741167      0.935938     -0.642356
   H      2.022167     -0.061062      0.477644
