    6
 0447.xyz Energy -0.00579388
   O     -1.629000     -0.041000      0.371000
   H     -0.698000     -0.092000      0.093000
   H     -2.067000     -0.735000     -0.137000
   O      1.743684      0.066269     -0.377978
   H      1.977684      0.951269     -0.687978
   H      2.258684     -0.045731      0.432022
