    6
 0448.xyz Energy -0.00526028
   O     -1.629000     -0.041000      0.371000
   H     -0.698000     -0.092000      0.093000
   H     -2.067000     -0.735000     -0.137000
   O      1.841073      0.072582     -0.396764
   H      2.075073      0.957582     -0.706764
   H      2.356073     -0.039418      0.413236
