    6
 0449.xyz Energy -0.00483256
   O     -1.629000     -0.041000      0.371000
   H     -0.698000     -0.092000      0.093000
   H     -2.067000     -0.735000     -0.137000
   O      1.924549      0.077993     -0.412865
   H      2.158549      0.962993     -0.722865
   H      2.439549     -0.034007      0.397135
