    6
 0451.xyz Energy -0.0042492
   O     -1.629000     -0.041000      0.371000
   H     -0.698000     -0.092000      0.093000
   H     -2.067000     -0.735000     -0.137000
   O      2.049764      0.086109     -0.437018
   H      2.283764      0.971109     -0.747018
   H      2.564764     -0.025891      0.372982
