    6
 0452.xyz Energy -0.00407057
   O     -1.629000     -0.041000      0.371000
   H     -0.698000     -0.092000      0.093000
   H     -2.067000     -0.735000     -0.137000
   O      2.091502      0.088815     -0.445069
   H      2.325502      0.973815     -0.755069
   H      2.606502     -0.023185      0.364931
