    6
 0454.xyz Energy -0.00389973
   O     -1.629000     -0.041000      0.371000
   H     -0.698000     -0.092000      0.093000
   H     -2.067000     -0.735000     -0.137000
   O      2.133240      0.091520     -0.453120
   H      2.367240      0.976520     -0.763120
   H      2.648240     -0.020480      0.356880
