    6
 0463.xyz Energy -0.00747196
   O     -0.702000     -0.056000      0.010000
   H     -1.022000      0.847000     -0.011000
   H      0.258000      0.042000      0.005000
   O      2.043929      0.028353      0.001361
   H      2.419929     -0.410647      0.767361
   H      2.415929     -0.447647     -0.744639
