    6
 0465.xyz Energy -0.00467417
   O     -0.702000     -0.056000      0.010000
   H     -1.022000      0.847000     -0.011000
   H      0.258000      0.042000      0.005000
   O      1.884486      0.029571      0.001686
   H      2.260486     -0.409429      0.767686
   H      2.256486     -0.446429     -0.744314
