    6
 0469.xyz Energy -2.1765e-07
   O      0.122109     -0.045135     -0.367604
   H      0.564572     -0.335433      0.435576
   H     -0.686681      0.380568     -0.067972
   O      0.359144      0.134132     34.831392
   H     -0.063244     -0.640078     34.447554
   H     -0.295900      0.505945     35.429570
