    6
 0480.xyz Energy -6.5376e-07
   O      0.060692      0.369624     -0.108513
   H     -0.177767      0.048400      0.766185
   H      0.117076     -0.418024     -0.657672
   O      0.019898     -0.035906     44.145853
   H     -0.761945     -0.111495     44.700967
   H      0.742047      0.147402     44.754163
