    6
 0485.xyz Energy -6.69e-08
   O      0.060692      0.369624     -0.108513
   H     -0.177767      0.048400      0.766185
   H      0.117076     -0.418024     -0.657672
   O      0.019898     -0.035906     92.354742
   H     -0.761945     -0.111495     92.909856
   H      0.742047      0.147402     92.963052
