    6
 0488.xyz Energy 1.63932e-06
   O      0.142578      0.339702      0.127885
   H      0.259671     -0.053462     -0.742089
   H     -0.402249     -0.286239      0.614203
   O      0.367284      0.064587     25.974012
   H      0.051243     -0.088824     25.078620
   H     -0.418527      0.024237     26.527200
