    6
 0493.xyz Energy -0.00388139
   O     -0.702000     -0.056000      0.010000
   H     -1.022000      0.847000     -0.011000
   H      0.258000      0.042000      0.005000
   O     -4.049383      0.074914      0.013777
   H     -3.673383     -0.364086      0.779777
   H     -3.677383     -0.401086     -0.732223
