    6
 0494.xyz Energy -0.00288213
   O     -0.702000     -0.056000      0.010000
   H     -1.022000      0.847000     -0.011000
   H      0.258000      0.042000      0.005000
   O     -4.389102      0.077510      0.014469
   H     -4.013102     -0.361490      0.780469
   H     -4.017102     -0.398490     -0.731531
