    6
 0495.xyz Energy -0.00210764
   O     -0.702000     -0.056000      0.010000
   H     -1.022000      0.847000     -0.011000
   H      0.258000      0.042000      0.005000
   O     -4.737635      0.080173      0.015180
   H     -4.361635     -0.358827      0.781180
   H     -4.365635     -0.395827     -0.730820
