    6
 0496.xyz Energy -0.00155654
   O     -0.702000     -0.056000      0.010000
   H     -1.022000      0.847000     -0.011000
   H      0.258000      0.042000      0.005000
   O     -5.094981      0.082904      0.015908
   H     -4.718981     -0.356096      0.781908
   H     -4.722981     -0.393096     -0.730092
