    6
 0497.xyz Energy -0.00117094
   O     -0.702000     -0.056000      0.010000
   H     -1.022000      0.847000     -0.011000
   H      0.258000      0.042000      0.005000
   O     -5.461140      0.085702      0.016654
   H     -5.085140     -0.353298      0.782654
   H     -5.089140     -0.390298     -0.729346
