    6
 0499.xyz Energy -0.000701845
   O     -0.702000     -0.056000      0.010000
   H     -1.022000      0.847000     -0.011000
   H      0.258000      0.042000      0.005000
   O     -6.219900      0.091500      0.018200
   H     -5.843900     -0.347500      0.784200
   H     -5.847900     -0.384500     -0.727800
