    6
 0500.xyz Energy -0.000557194
   O     -0.702000     -0.056000      0.010000
   H     -1.022000      0.847000     -0.011000
   H      0.258000      0.042000      0.005000
   O     -6.612500      0.094500      0.019000
   H     -6.236500     -0.344500      0.785000
   H     -6.240500     -0.381500     -0.727000
