    6
 0501.xyz Energy 6.2833e-07
   O      0.142578      0.339702      0.127885
   H      0.259671     -0.053462     -0.742089
   H     -0.402249     -0.286239      0.614203
   O      0.367284      0.064587     35.075345
   H      0.051243     -0.088824     34.179953
   H     -0.418527      0.024237     35.628534
