    6
 0509.xyz Energy 8.89524e-06
   O     -0.086969      0.004721      0.380124
   H      0.415457      0.659975     -0.113184
   H     -0.328489     -0.664696     -0.266940
   O      0.327640     -0.113129     17.006738
   H     -0.570323     -0.157337     16.664902
   H      0.242684      0.270466     17.884679
