    6
 0511.xyz Energy 1.15115e-06
   O     -0.086969      0.004721      0.380124
   H      0.415457      0.659975     -0.113184
   H     -0.328489     -0.664696     -0.266940
   O      0.327640     -0.113129     35.074294
   H     -0.570323     -0.157337     34.732458
   H      0.242684      0.270466     35.952235
