    6
 0516.xyz Energy 9.336e-08
   O     -0.086969      0.004721      0.380124
   H      0.415457      0.659975     -0.113184
   H     -0.328489     -0.664696     -0.266940
   O      0.327640     -0.113129     82.607627
   H     -0.570323     -0.157337     82.265791
   H      0.242684      0.270466     83.485568
