    6
 0520.xyz Energy 2.75307e-06
   O     -0.328868      0.201299      0.058352
   H     -0.081017     -0.300215     -0.724079
   H      0.409885      0.098916      0.665727
   O     -0.233317      0.166348     26.112196
   H      0.142706      0.572933     25.325787
   H      0.090610     -0.739281     26.105039
