    6
 0521.xyz Energy 1.07072e-06
   O     -0.328868      0.201299      0.058352
   H     -0.081017     -0.300215     -0.724079
   H      0.409885      0.098916      0.665727
   O     -0.233317      0.166348     35.213529
   H      0.142706      0.572933     34.427120
   H      0.090610     -0.739281     35.206372
