    6
 0523.xyz Energy 2.8589e-07
   O     -0.328868      0.201299      0.058352
   H     -0.081017     -0.300215     -0.724079
   H      0.409885      0.098916      0.665727
   O     -0.233317      0.166348     53.821529
   H      0.142706      0.572933     53.035120
   H      0.090610     -0.739281     53.814372
