    6
 0524.xyz Energy 1.731e-07
   O     -0.328868      0.201299      0.058352
   H     -0.081017     -0.300215     -0.724079
   H      0.409885      0.098916      0.665727
   O     -0.233317      0.166348     63.328196
   H      0.142706      0.572933     62.541787
   H      0.090610     -0.739281     63.321039
