    6
 0526.xyz Energy 7.617e-08
   O     -0.328868      0.201299      0.058352
   H     -0.081017     -0.300215     -0.724079
   H      0.409885      0.098916      0.665727
   O     -0.233317      0.166348     82.746863
   H      0.142706      0.572933     81.960454
   H      0.090610     -0.739281     82.739705
