    6
 0527.xyz Energy 5.389e-08
   O     -0.328868      0.201299      0.058352
   H     -0.081017     -0.300215     -0.724079
   H      0.409885      0.098916      0.665727
   O     -0.233317      0.166348     92.658863
   H      0.142706      0.572933     91.872454
   H      0.090610     -0.739281     92.651705
