    6
 0530.xyz Energy 4.92277e-06
   O      0.067242      0.361399      0.130192
   H     -0.738452     -0.154902      0.227327
   H      0.671210     -0.206497     -0.357518
   O      0.146835      0.160922     25.694237
   H     -0.768378     -0.081928     25.863209
   H      0.621543     -0.078993     26.495634
