    6
 0531.xyz Energy 1.94694e-06
   O      0.067242      0.361399      0.130192
   H     -0.738452     -0.154902      0.227327
   H      0.671210     -0.206497     -0.357518
   O      0.146835      0.160922     34.795570
   H     -0.768378     -0.081928     34.964542
   H      0.621543     -0.078993     35.596967
