    6
 0539.xyz Energy 1.98653e-05
   O     -0.168358     -0.227108      0.268621
   H     -0.346869     -0.207986     -0.676319
   H      0.515227      0.435094      0.407697
   O      0.096777     -0.247887     16.819292
   H      0.690204      0.278689     17.363080
   H     -0.786981     -0.030801     17.130721
