    6
 0546.xyz Energy 1.7561e-07
   O     -0.168358     -0.227108      0.268621
   H     -0.346869     -0.207986     -0.676319
   H      0.515227      0.435094      0.407697
   O      0.096777     -0.247887     82.420181
   H      0.690204      0.278689     82.963969
   H     -0.786981     -0.030801     82.731610
