    6
 0556.xyz Energy 1.2293e-07
   O     -0.189781      0.152339      0.304723
   H      0.678194      0.400362     -0.027312
   H     -0.488413     -0.552701     -0.277412
   O     -0.107440     -0.277881     82.841076
   H     -0.580453      0.531676     83.055595
   H      0.687893     -0.253795     83.381454
