    6
 0557.xyz Energy 8.723e-08
   O     -0.189781      0.152339      0.304723
   H      0.678194      0.400362     -0.027312
   H     -0.488413     -0.552701     -0.277412
   O     -0.107440     -0.277881     92.753076
   H     -0.580453      0.531676     92.967595
   H      0.687893     -0.253795     93.293454
