    6
 0559.xyz Energy 2.27112e-05
   O      0.012152      0.084797      0.380450
   H      0.213709      0.669770     -0.355978
   H     -0.225861     -0.754567     -0.024472
   O      0.278707      0.071392     17.250803
   H     -0.309264     -0.688870     17.288682
   H      0.030557      0.617478     18.002703
