    6
 0573.xyz Energy 6.2897e-07
   O      0.227046      0.174170      0.264944
   H     -0.541941     -0.380276      0.427403
   H      0.314895      0.206106     -0.692347
   O     -0.030519     -0.026566     53.446505
   H     -0.735397     -0.108906     54.095743
   H      0.765916      0.135472     53.960876
