    6
 0575.xyz Energy 2.5335e-07
   O      0.227046      0.174170      0.264944
   H     -0.541941     -0.380276      0.427403
   H      0.314895      0.206106     -0.692347
   O     -0.030519     -0.026566     72.594949
   H     -0.735397     -0.108906     73.244188
   H      0.765916      0.135472     73.109320
