    6
 0582.xyz Energy 1.38966e-06
   O     -0.134046      0.054641      0.362113
   H     -0.514378      0.382743     -0.458155
   H      0.648424     -0.437384      0.096042
   O      0.034568     -0.168521     44.466797
   H      0.107011      0.767733     44.674939
   H     -0.141578     -0.599211     45.308594
