    6
 0589.xyz Energy -2.82906e-05
   O      0.026165     -0.028460     -0.388054
   H     -0.285498     -0.698234      0.227911
   H      0.259333      0.726694      0.160142
   O      0.138682      0.083046     16.717088
   H     -0.487153      0.597387     17.235669
   H      0.348472     -0.680433     17.263193
