    6
 0593.xyz Energy -9.0751e-07
   O      0.026165     -0.028460     -0.388054
   H     -0.285498     -0.698234      0.227911
   H      0.259333      0.726694      0.160142
   O      0.138682      0.083046     53.392643
   H     -0.487153      0.597387     53.911225
   H      0.348472     -0.680433     53.938749
