    6
 0598.xyz Energy 0.000100963
   O     -0.221716     -0.287815      0.141720
   H      0.708540     -0.330378     -0.099020
   H     -0.486823      0.618193     -0.042700
   O      0.202857     -0.002462      8.314700
   H     -0.390010      0.684595      8.633454
   H      0.187153     -0.682133      8.995100
