    6
 0599.xyz Energy 8.4625e-06
   O     -0.221716     -0.287815      0.141720
   H      0.708540     -0.330378     -0.099020
   H     -0.486823      0.618193     -0.042700
   O      0.202857     -0.002462     17.145811
   H     -0.390010      0.684595     17.464565
   H      0.187153     -0.682133     17.826211
