    6
 0600.xyz Energy 2.07717e-06
   O     -0.221716     -0.287815      0.141720
   H      0.708540     -0.330378     -0.099020
   H     -0.486823      0.618193     -0.042700
   O      0.202857     -0.002462     26.112033
   H     -0.390010      0.684595     26.430787
   H      0.187153     -0.682133     26.792433
