    6
 0603.xyz Energy 2.0017e-07
   O     -0.221716     -0.287815      0.141720
   H      0.708540     -0.330378     -0.099020
   H     -0.486823      0.618193     -0.042700
   O      0.202857     -0.002462     53.821367
   H     -0.390010      0.684595     54.140121
   H      0.187153     -0.682133     54.501766
