    6
 0605.xyz Energy 7.657e-08
   O     -0.221716     -0.287815      0.141720
   H      0.708540     -0.330378     -0.099020
   H     -0.486823      0.618193     -0.042700
   O      0.202857     -0.002462     72.969811
   H     -0.390010      0.684595     73.288565
   H      0.187153     -0.682133     73.650211
