    6
 1000.xyz Energy -0.00419605
   O     -1.410000      0.086000      0.000000
   H     -1.884000     -0.750000      0.000000
   H     -2.082000      0.772000      0.000000
   O      1.195033     -0.152133      0.000000
   H      0.240033     -0.002133      0.000000
   H      1.585033      0.724867      0.000000
