    6
 1010.xyz Energy -0.00493847
   O     -1.410000      0.086000      0.000000
   H     -1.884000     -0.750000      0.000000
   H     -2.082000      0.772000      0.000000
   O      1.228000     -0.153760      0.000000
   H      0.273000     -0.003760      0.000000
   H      1.618000      0.723240      0.000000
