   15
 0000.xyz Energy -0.102888
   N     -0.414436     -0.039789      0.547754
   C      0.474412      0.045545     -0.627001
   H      0.064666      0.269949      1.403477
   H     -0.736184     -1.003965      0.704985
   H     -1.249083      0.549586      0.429765
   H      1.336195     -0.598174     -0.441145
   H      0.779771      1.087563     -0.739764
   H     -0.089342     -0.294764     -1.497716
   C     -0.402005     -0.914227      4.281981
   C      0.034939      0.074908      5.419053
   O      0.925863      0.955481      5.106537
   O     -0.552461     -0.106336      6.557064
   H      0.122547     -0.694059      3.344187
   H     -0.186833     -1.946182      4.597031
   H     -1.488942     -0.837302      4.131005
