   15
 0003.xyz Energy -0.134136
   N     -0.649820      0.186558     -0.127692
   C      0.743845     -0.213551      0.146155
   H     -0.913716     -0.016557     -1.100750
   H     -0.787619      1.194100      0.026424
   H     -1.309953     -0.312982      0.482719
   H      1.391449      0.348200     -0.529590
   H      0.824746     -1.287124     -0.034561
   H      0.961504      0.026571      1.188623
   C     -0.265599     -1.430136      3.771467
   C      0.014844      0.113378      3.737434
   O     -1.010777      0.882653      3.585322
   O      1.258162      0.446212      3.865249
   H     -1.337972     -1.638724      3.673517
   H      0.285913     -1.916693      2.953187
   H      0.113207     -1.847753      4.716055
