   15
 0005.xyz Energy -0.112785
   N      0.408323      0.552352      0.039429
   C     -0.467413     -0.632266     -0.045125
   H      0.229816      1.089844      0.897901
   H      0.260969      1.184995     -0.758023
   H      1.401446      0.284739      0.042718
   H     -1.501815     -0.283555     -0.044588
   H     -0.264399     -1.260409      0.824347
   H     -0.230501     -1.157161     -0.972557
   C     -1.020584     -0.421912      3.712782
   C      0.077160      0.030205      4.738838
   O     -0.141845     -0.252059      5.979476
   O      1.090416      0.644568      4.220352
   H     -1.839998     -0.948008      4.217629
   H     -1.411705      0.462219      3.187596
   H     -0.563542     -1.077095      2.956481
