   15
 0006.xyz Energy -0.152574
   N     -0.000112      0.188343      0.661742
   C      0.000117     -0.215586     -0.757492
   H     -0.920196      0.546898      0.949180
   H      0.690412      0.929337      0.840583
   H      0.229394     -0.603483      1.276769
   H     -0.248851      0.663453     -1.354896
   H     -0.749176     -0.999742     -0.881667
   H      0.998574     -0.584801     -0.999440
   C     -0.581908     -0.908051      5.516550
   C      0.051251      0.070067      4.465533
   O      1.318792      0.290440      4.573209
   O     -0.778593      0.553644      3.599236
   H      0.178740     -1.290676      6.207997
   H     -1.365158     -0.378079      6.078809
   H     -1.065095     -1.744355      4.989987
