   15
 0007.xyz Energy -0.0981731
   N     -0.680158     -0.102540      0.015665
   C      0.778569      0.117385     -0.017942
   H     -1.110767      0.099869     -0.896116
   H     -1.134250      0.501625      0.713278
   H     -0.906841     -1.076700      0.255556
   H      0.952670      1.163529     -0.276512
   H      1.199471     -0.549018     -0.773263
   H      1.173949     -0.113139      0.973172
   C     -1.150975      0.391572      4.180780
   C      0.091521     -0.024863      5.043931
   O      0.835468      0.934103      5.484100
   O      0.234096     -1.298526      5.218313
   H     -1.218660      1.482301      4.086883
   H     -1.068440     -0.064890      3.183125
   H     -2.066113     -0.002472      4.647037
