   15
 0009.xyz Energy -0.101401
   N     -0.099954      0.550549      0.400350
   C      0.114411     -0.630202     -0.458287
   H     -0.839212      1.158427      0.023893
   H      0.755294      1.116333      0.479841
   H     -0.379175      0.276454      1.351574
   H      0.406862     -0.274652     -1.448057
   H     -0.824167     -1.185988     -0.502264
   H      0.906066     -1.231670     -0.007408
   C     -0.183122      1.348858      5.046315
   C      0.016511     -0.107665      5.594885
   O      0.378080     -1.002413      4.737264
   O     -0.208298     -0.250910      6.860546
   H      0.038554      1.400357      3.973331
   H     -1.220738      1.665778      5.229069
   H      0.472479      2.038375      5.598490
