   15
 0011.xyz Energy -0.123043
   N     -0.594770     -0.085414     -0.335154
   C      0.680833      0.097763      0.383640
   H     -0.643151     -1.009985     -0.782999
   H     -0.714603      0.622019     -1.072078
   H     -1.398459     -0.007723      0.302003
   H      1.490003      0.004504     -0.343089
   H      0.748052     -0.678888      1.147875
   H      0.670434      1.092066      0.834226
   C     -1.316422     -0.066288      3.423996
   C      0.105646      0.001878      4.083781
   O      1.034370     -0.700534      3.526188
   O      0.188677      0.762284      5.126779
   H     -1.310359     -0.714445      2.539156
   H     -2.039753     -0.446516      4.160680
   H     -1.636250      0.948285      3.143823
