   15
 0013.xyz Energy -0.111011
   N     -0.198311      0.530678     -0.390420
   C      0.227006     -0.607455      0.446921
   H      0.100526      1.427042      0.015741
   H     -1.221634      0.561518     -0.489106
   H      0.202072      0.470532     -1.335933
   H     -0.228405     -0.486167      1.431542
   H      1.316462     -0.584875      0.512774
   H     -0.118238     -1.524075     -0.035143
   C      0.127366     -1.449083      4.412449
   C     -0.004402      0.114289      4.439772
   O      1.047393      0.787501      4.112157
   O     -1.166205      0.559033      4.793854
   H      1.130074     -1.755105      4.089937
   H     -0.079966     -1.847741      5.416725
   H     -0.629394     -1.865889      3.731470
