   15
 0014.xyz Energy -0.076691
   N      0.173181      0.053515     -0.663716
   C     -0.198239     -0.061245      0.759751
   H      0.589603      0.971098     -0.869562
   H     -0.646329     -0.058544     -1.275048
   H      0.859200     -0.664683     -0.931087
   H     -0.924319      0.723616      0.979721
   H      0.709293      0.066002      1.353009
   H     -0.631803     -1.051357      0.912959
   C      0.599570     -0.538441      4.948629
   C     -0.047228      0.047817      6.252545
   O     -0.202660      1.328826      6.293499
   O     -0.354305     -0.828961      7.152500
   H      0.819456      0.256311      4.225368
   H      1.525692     -1.071056      5.211508
   H     -0.085916     -1.273561      4.501581
