   15
 0016.xyz Energy -0.107174
   N     -0.205422     -0.221185     -0.618267
   C      0.235146      0.253176      0.707728
   H     -0.553629     -1.187886     -0.573780
   H      0.565618     -0.201019     -1.298685
   H     -0.963884      0.364044     -0.992648
   H      1.036417     -0.405127      1.048595
   H     -0.623197      0.207934      1.380752
   H      0.591273      1.278861      0.594080
   C      1.086578     -0.967540      5.193941
   C     -0.084838      0.076427      5.206549
   O     -0.506484      0.456125      6.366231
   O     -0.503409      0.442785      4.038843
   H      1.400609     -1.220769      6.213915
   H      0.756629     -1.875970      4.668228
   H      1.936508     -0.553541      4.631474
