   15
 0017.xyz Energy -0.12094
   N      0.133322      0.443274      0.509027
   C     -0.152619     -0.507419     -0.582670
   H      0.071347     -0.012646      1.428828
   H     -0.532154      1.227504      0.506915
   H      1.078638      0.839377      0.423011
   H     -1.164224     -0.890321     -0.435603
   H      0.583562     -1.311569     -0.526621
   H     -0.071239      0.034211     -1.527015
   C      1.375209     -0.474667      5.397735
   C     -0.107753      0.038065      5.384660
   O     -0.650557      0.262377      6.534385
   O     -0.627460      0.178453      4.208585
   H      1.755859     -0.555538      6.423236
   H      1.423600     -1.456077      4.902783
   H      2.004063      0.216664      4.817435
