   15
 0018.xyz Energy -0.0944043
   N     -0.015083     -0.273707      0.631056
   C      0.017263      0.313298     -0.722370
   H      0.158803     -1.287011      0.604305
   H     -0.928532     -0.128265      1.080876
   H      0.699804      0.147031      1.239196
   H     -0.760021     -0.172075     -1.315522
   H      1.006846      0.126574     -1.143822
   H     -0.173006      1.383999     -0.626608
   C     -0.947962      0.444641      4.689810
   C      0.070696     -0.039527      5.780754
   O     -0.312145     -1.015088      6.534766
   O      1.193318      0.602451      5.803964
   H     -1.868311     -0.151439      4.716900
   H     -1.184723      1.505429      4.860568
   H     -0.480699      0.368626      3.696819
