   15
 0019.xyz Energy -0.131012
   N     -0.062530     -0.000665      0.685175
   C      0.071564      0.000757     -0.784314
   H     -0.850316     -0.587863      0.989030
   H     -0.225904      0.947977      1.047485
   H      0.786558     -0.363110      1.138608
   H     -0.856279      0.393994     -1.203908
   H      0.242236     -1.028676     -1.105095
   H      0.919876      0.637893     -1.041606
   C      1.361724     -0.499108      4.904150
   C     -0.107956      0.037631      5.023281
   O     -0.806339      0.052321      3.937525
   O     -0.458903      0.411808      6.210625
   H      1.585667     -0.811866      3.876960
   H      2.062058      0.290278      5.215419
   H      1.496115     -1.346781      5.592287
