   15
 0020.xyz Energy -0.140663
   N     -0.165449      0.127833      0.655485
   C      0.189380     -0.146319     -0.750331
   H     -1.070124      0.611893      0.726101
   H      0.539804      0.722002      1.110964
   H     -0.236260     -0.741569      1.200503
   H      0.248789      0.810489     -1.272419
   H     -0.593357     -0.777546     -1.175345
   H      1.153626     -0.658129     -0.757651
   C      0.587727     -1.259902      4.110994
   C     -0.046294      0.100804      4.567874
   O     -0.195841      1.002370      3.655935
   O     -0.350118      0.168309      5.823298
   H      0.805390     -1.252705      3.035978
   H      1.513558     -1.436838      4.678458
   H     -0.104421     -2.081352      4.348262
