   15
 0021.xyz Energy -0.143248
   N     -0.232274      0.618964      0.190544
   C      0.265894     -0.708517     -0.218116
   H      0.369534      1.371834     -0.168275
   H     -0.262814      0.708778      1.214693
   H     -1.183180      0.787622     -0.163365
   H      1.273067     -0.826150      0.186052
   H      0.274504     -0.740606     -1.309289
   H     -0.411764     -1.460081      0.191401
   C      0.728731      1.250274      4.069707
   C     -0.056063     -0.099514      4.225955
   O     -0.230299     -0.793068      3.151039
   O     -0.447161     -0.368548      5.429125
   H      1.042172      1.406571      3.030278
   H      0.086870      2.082350      4.395512
   H      1.609054      1.237453      4.729260
