   15
 0022.xyz Energy -0.123966
   N      0.636968     -0.079046      0.247787
   C     -0.729133      0.090495     -0.283633
   H      0.786036      0.494716      1.088211
   H      1.345447      0.196846     -0.444904
   H      0.820267     -1.057945      0.504842
   H     -0.860705      1.144239     -0.536417
   H     -1.430629     -0.217220      0.494168
   H     -0.823557     -0.540531     -1.169445
   C     -1.448080     -0.140997      5.077414
   C      0.113720      0.010479      5.086283
   O      0.680253      0.075522      6.244570
   O      0.665374      0.055752      3.917273
   H     -1.845890     -0.188003      6.098504
   H     -1.891764      0.711938      4.542501
   H     -1.721837     -1.052467      4.525669
