   15
 0023.xyz Energy -0.113546
   N      0.010515     -0.069474      0.684425
   C     -0.012039      0.079540     -0.783454
   H     -0.515820      0.684117      1.145738
   H      0.971913     -0.043484      1.049005
   H     -0.407291     -0.962685      0.976885
   H      0.442443      1.041308     -1.028475
   H     -1.054133      0.044002     -1.106776
   H      0.560229     -0.745620     -1.211700
   C      0.908206      1.089842      4.537152
   C     -0.076012     -0.081677      4.885150
   O     -1.307944      0.242986      5.094334
   O      0.464451     -1.256069      4.925887
   H      0.381501      2.051415      4.504810
   H      1.708108      1.127205      5.291637
   H      1.383096      0.889194      3.565368
