   15
 0026.xyz Energy -0.122552
   N     -0.519335      0.123774     -0.433989
   C      0.594484     -0.141690      0.496773
   H     -0.535763     -0.558793     -1.203125
   H     -0.442698      1.060063     -0.852761
   H     -1.428180      0.072406      0.044844
   H      1.525723     -0.072824     -0.068592
   H      0.456482     -1.144578      0.905347
   H      0.557380      0.612104      1.285565
   C     -1.396254     -0.395905      4.122745
   C      0.110858      0.025888      4.008967
   O      0.919508     -0.851199      3.515385
   O      0.377901      1.219504      4.429591
   H     -1.552631     -1.410070      3.735314
   H     -1.707714     -0.346488      5.176802
   H     -2.017222      0.319410      3.563400
