   15
 0027.xyz Energy -0.0904843
   N      0.074662      0.064713     -0.680891
   C     -0.085457     -0.074066      0.779412
   H      0.942413      0.563711     -0.917000
   H     -0.706716      0.589643     -1.095349
   H      0.110175     -0.853533     -1.142932
   H     -0.116160      0.929067      1.208793
   H      0.770296     -0.636828      1.157230
   H     -1.019232     -0.608760      0.963638
   C      1.097104      0.613587      4.547403
   C     -0.082134     -0.050589      5.341451
   O      0.246494     -0.847573      6.302513
   O     -1.266359      0.277458      4.937776
   H      2.068717      0.304188      4.951540
   H      1.025663      0.328732      3.487102
   H      1.000010      1.708086      4.600210
