   15
 0028.xyz Energy -0.081572
   N      0.042619     -0.288286     -0.623257
   C     -0.048773      0.330005      0.713435
   H      1.017525     -0.338901     -0.946885
   H     -0.487789      0.249004     -1.321732
   H     -0.332370     -1.246038     -0.619573
   H      0.362538      1.338732      0.643585
   H      0.531269     -0.283449      1.405524
   H     -1.102233      0.354423      0.998744
   C      0.901966     -0.927842      5.134875
   C     -0.073773      0.068134      5.854742
   O     -1.062911     -0.456757      6.497327
   O      0.224906      1.319408      5.720354
   H      0.598567     -1.968414      5.302939
   H      0.910500     -0.710719      4.056325
   H      1.924202     -0.769833      5.509321
