   15
 0030.xyz Energy -0.134756
   N     -0.000385     -0.581044      0.368460
   C      0.000427      0.665114     -0.421775
   H     -0.772310     -1.200940      0.089895
   H     -0.105979     -0.387629      1.373109
   H      0.876609     -1.103957      0.244513
   H     -0.951128      1.171123     -0.248326
   H      0.114965      0.393879     -1.473000
   H      0.838096      1.276374     -0.080534
   C     -0.016815      1.441417      5.257123
   C      0.000480     -0.113980      5.050520
   O     -0.030559     -0.838051      6.118966
   O      0.046460     -0.501331      3.817312
   H     -0.071570      1.697530      6.322249
   H      0.892052      1.875790      4.814668
   H     -0.878237      1.869523      4.723436
