   15
 0031.xyz Energy -0.221297
   N     -0.360000     -0.088000      0.621000
   C      0.883000     -0.057000     -0.123000
   H     -0.463000      0.753000      1.249000
   H     -0.335000     -0.801000      1.398000
   H     -1.240000     -0.207000      0.127000
   H      1.704000      0.075000      0.584000
   H      0.839000      0.779000     -0.824000
   H      0.982000     -1.004000     -0.658000
   C     -0.512840      0.322320      4.975840
   C     -0.481840      0.184320      3.486840
   O     -0.556840      1.228320      2.770840
   O     -0.374840     -0.974680      2.982840
   H     -0.958840      1.277320      5.269840
   H     -1.101840     -0.484680      5.421840
   H      0.506160      0.275320      5.368840
