   15
 0039.xyz Energy -0.119479
   N     -0.214273      0.491377      0.431289
   C      0.245266     -0.562482     -0.493690
   H     -0.876888      0.119042      1.124143
   H     -0.688723      1.251893     -0.073084
   H      0.572737      0.906204      0.947480
   H     -0.631268     -0.960622     -1.008239
   H      0.737458     -1.335819      0.099148
   H      0.941700     -0.106471     -1.199953
   C     -1.378344     -0.307596      5.669824
   C      0.109300      0.025786      5.298319
   O      0.826630      0.570195      6.223455
   O      0.454060     -0.284328      4.090873
   H     -1.596572     -0.033404      6.709190
   H     -2.051917      0.236081      4.990707
   H     -1.558541     -1.382336      5.519470
