   15
 0040.xyz Energy -0.220852
   N     -0.360000     -0.088000      0.621000
   C      0.883000     -0.057000     -0.123000
   H     -0.463000      0.753000      1.249000
   H     -0.335000     -0.801000      1.398000
   H     -1.240000     -0.207000      0.127000
   H      1.704000      0.075000      0.584000
   H      0.839000      0.779000     -0.824000
   H      0.982000     -1.004000     -0.658000
   C     -0.511000      0.313000      4.946000
   C     -0.480000      0.175000      3.457000
   O     -0.555000      1.219000      2.741000
   O     -0.373000     -0.984000      2.953000
   H     -0.957000      1.268000      5.240000
   H     -1.100000     -0.494000      5.392000
   H      0.508000      0.266000      5.339000
