   15
 0042.xyz Energy -0.211895
   N     -0.360000     -0.088000      0.621000
   C      0.883000     -0.057000     -0.123000
   H     -0.463000      0.753000      1.249000
   H     -0.335000     -0.801000      1.398000
   H     -1.240000     -0.207000      0.127000
   H      1.704000      0.075000      0.584000
   H      0.839000      0.779000     -0.824000
   H      0.982000     -1.004000     -0.658000
   C     -0.501800      0.266400      4.796800
   C     -0.470800      0.128400      3.307800
   O     -0.545800      1.172400      2.591800
   O     -0.363800     -1.030600      2.803800
   H     -0.947800      1.221400      5.090800
   H     -1.090800     -0.540600      5.242800
   H      0.517200      0.219400      5.189800
