    6
 0002.xyz Energy -0.148273
   H     -0.410771     -0.836980     -0.423434
   N      0.000002      0.000005      0.000002
   H      0.930585     -0.223369      0.364149
   H      0.077851      0.736900     -0.706731
   H     -0.597696      0.323385      0.765985
  Br      0.000000      0.000000      3.820000
