    6
 0005.xyz Energy -0.144104
   H      0.870934      0.403684     -0.356480
   N     -0.000005     -0.000002      0.000002
   H     -0.693781      0.742454      0.126163
   H     -0.355469     -0.689296     -0.668629
   H      0.178382     -0.456811      0.898919
  Br      0.000000      0.000000      3.980000
