    6
 0006.xyz Energy -0.146898
   H     -0.691543     -0.753585     -0.049429
   N      0.000004      0.000004      0.000000
   H      0.866787     -0.301876     -0.453913
   H     -0.364335      0.829426     -0.477351
   H      0.189038      0.225977      0.980689
  Br      0.000000      0.000000      3.960000
