    6
 0007.xyz Energy -0.14689
   H      0.095100      1.007731      0.154915
   N     -0.000001     -0.000005     -0.000001
   H      0.888025     -0.378038     -0.342031
   H     -0.249574     -0.458671      0.880844
   H     -0.733544     -0.170946     -0.693717
  Br      0.000000      0.000000      3.900000
