    6
 0008.xyz Energy -0.150879
   H      0.104494      1.008276     -0.145002
   N     -0.000001     -0.000006      0.000001
   H     -0.944894     -0.199772      0.340226
   H      0.154568     -0.490025     -0.885740
   H      0.685839     -0.318402      0.690505
  Br      0.000000      0.000000      3.720000
