    6
 0009.xyz Energy -0.148895
   H      0.726178      0.718376     -0.071872
   N     -0.000004     -0.000004      0.000000
   H     -0.922299      0.438125     -0.076799
   H      0.118117     -0.681456     -0.755128
   H      0.078059     -0.474991      0.903794
  Br      0.000000      0.000000      3.860000
