    6
 0012.xyz Energy -0.150744
   H      0.270524      0.987568     -0.009525
   N     -0.000001     -0.000005      0.000000
   H     -1.021243     -0.074209     -0.006553
   H      0.381441     -0.466368     -0.827983
   H      0.369299     -0.446915      0.844060
  Br      0.000000      0.000000      3.780000
