    6
 0014.xyz Energy -0.149373
   H      0.987986     -0.028219     -0.267680
   N     -0.000005      0.000000      0.000001
   H     -0.236627      0.938831      0.333303
   H     -0.580235     -0.230367     -0.811671
   H     -0.171049     -0.680247      0.746028
  Br      0.000000      0.000000      3.780000
