    6
 0015.xyz Energy -0.147844
   H      1.013648      0.110086     -0.094670
   N     -0.000006     -0.000001      0.000001
   H     -0.248066     -0.987097     -0.112206
   H     -0.293269      0.322451      0.926591
   H     -0.472236      0.554568     -0.719722
  Br      0.000000      0.000000      3.900000
