    6
 0017.xyz Energy -0.144261
   H      0.332676      0.347228      0.904060
   N     -0.000002     -0.000002     -0.000005
   H     -0.460710      0.759792     -0.508870
   H      0.794431     -0.344405     -0.546641
   H     -0.666372     -0.762589      0.151520
  Br      0.000000      0.000000      3.980000
