    6
 0021.xyz Energy -0.15585
   H     -0.395178     -0.846523      0.419283
   N      0.000002      0.000005     -0.000002
   H      0.572867     -0.255444     -0.809357
   H     -0.758915      0.618315     -0.300477
   H      0.581197      0.483588      0.690583
  Br      0.000000      0.000000      3.600000
