    6
 0026.xyz Energy -0.147381
   H     -0.527455     -0.817939      0.318327
   N      0.000003      0.000004     -0.000002
   H      0.794340     -0.306358     -0.568907
   H     -0.609508      0.602049     -0.560882
   H      0.342583      0.522186      0.811487
  Br      0.000000      0.000000      3.860000
