    6
 0028.xyz Energy -0.154458
   H      0.430178     -0.831074     -0.415725
   N     -0.000002      0.000005      0.000002
   H     -0.869997     -0.265113      0.470433
   H      0.643809      0.413323      0.680608
   H     -0.203957      0.682802     -0.735347
  Br      0.000000      0.000000      3.640000
