    9
 0000.xyz Energy 0.124575
   N     -0.033572      0.505019      0.466051
   C      0.038422     -0.578099     -0.533476
   H     -0.250747      0.137619      1.401780
   H     -0.762821      1.189220      0.225334
   H      0.858020      1.013518      0.532480
   H     -0.932518     -1.076434     -0.556361
   H      0.826178     -1.267187     -0.223058
   H      0.270578     -0.125997     -1.499644
  Na      0.000000      0.000000      4.520000
