    9
 0001.xyz Energy 0.101402
   N      0.473573      0.026173     -0.498416
   C     -0.542089     -0.029949      0.570538
   H      1.307993      0.545601     -0.195638
   H      0.107378      0.491851     -1.339205
   H      0.779094     -0.916233     -0.774907
   H     -0.823595      0.995323      0.817840
   H     -0.094722     -0.532487      1.430235
   H     -1.397515     -0.590889      0.189269
  Na      0.000000      0.000000      4.800000
