    9
 0002.xyz Energy 0.0950738
   N     -0.201044      0.312909     -0.578830
   C      0.230120     -0.358186      0.662585
   H     -1.148845      0.701052     -0.485264
   H     -0.211036     -0.339811     -1.373648
   H      0.428355      1.088754     -0.823455
   H     -0.473981     -1.166959      0.866826
   H      0.219730      0.383121      1.463907
   H      1.237427     -0.746287      0.499850
  Na      0.000000      0.000000      5.140000
