    9
 0003.xyz Energy 0.103513
   N     -0.543521      0.364070     -0.213104
   C      0.622171     -0.416736      0.243938
   H     -0.255558      1.262364     -0.622840
   H     -1.184785      0.569931      0.564252
   H     -1.078424     -0.145283     -0.928895
   H      1.145091      0.174346      0.998102
   H      1.260602     -0.601666     -0.622068
   H      0.252203     -1.353080      0.666025
  Na      0.000000      0.000000      4.820000
