    9
 0004.xyz Energy 0.0901305
   N     -0.123037     -0.015350     -0.676758
   C      0.140829      0.017563      0.774680
   H     -1.088306     -0.309387     -0.875598
   H      0.505765     -0.672396     -1.157153
   H      0.012508      0.910683     -1.103382
   H     -0.019178     -0.988817      1.166067
   H     -0.554473      0.728895      1.224483
   H      1.175321      0.335055      0.918901
  Na      0.000000      0.000000      5.420000
