    9
 0005.xyz Energy 0.0983967
   N     -0.271127      0.022236      0.631958
   C      0.310348     -0.025445     -0.723400
   H     -1.242999      0.358050      0.611190
   H      0.261059      0.652718      1.246084
   H     -0.274355     -0.907766      1.071280
   H      0.285262      0.985966     -1.133285
   H     -0.295756     -0.707226     -1.323045
   H      1.336346     -0.387545     -0.634042
  Na      0.000000      0.000000      5.780000
