    9
 0007.xyz Energy 0.109308
   N      0.144912     -0.154494     -0.654604
   C     -0.165887      0.176836      0.749321
   H     -0.571265     -0.770186     -1.061730
   H      1.049602     -0.637268     -0.734263
   H      0.193300      0.691597     -1.237449
   H     -0.203023     -0.757487      1.312568
   H     -1.132255      0.684375      0.766627
   H      0.626617      0.828672      1.121907
  Na      0.000000      0.000000      4.340000
