    9
 0008.xyz Energy 0.102413
   N      0.148520      0.268302     -0.615898
   C     -0.170013     -0.307111      0.705017
   H      0.368964      1.270349     -0.544867
   H     -0.641249      0.170640     -1.267517
   H      0.960509     -0.197787     -1.041756
   H     -1.035366      0.226899      1.101986
   H      0.702643     -0.172803      1.347041
   H     -0.393506     -1.366168      0.562813
  Na      0.000000      0.000000      4.700000
