    9
 0009.xyz Energy 0.117398
   N     -0.444802     -0.520252      0.069737
   C      0.509154      0.595532     -0.079838
   H     -0.922661     -0.726221     -0.817374
   H     -1.168327     -0.303656      0.767933
   H      0.029796     -1.380991      0.372730
   H     -0.052780      1.474490     -0.401163
   H      1.247271      0.305564     -0.830080
   H      0.980713      0.764019      0.890223
  Na      0.000000      0.000000      4.380000
