    9
 0012.xyz Energy 0.0976286
   N      0.415336      0.545657     -0.055939
   C     -0.475421     -0.624617      0.064036
   H      1.377337      0.262544     -0.284279
   H      0.450418      1.081405      0.821343
   H      0.096820      1.184716     -0.796257
   H     -0.085989     -1.260325      0.861409
   H     -0.469625     -1.148327     -0.893803
   H     -1.475473     -0.259682      0.305887
  Na      0.000000      0.000000      5.260000
