    9
 0013.xyz Energy 0.0925937
   N     -0.213148      0.048480      0.652374
   C      0.243978     -0.055504     -0.746770
   H     -0.786097     -0.762373      0.920674
   H     -0.783065      0.892083      0.798695
   H      0.581490      0.095066      1.303758
   H     -0.640719     -0.100869     -1.384610
   H      0.839880     -0.965770     -0.836647
   H      0.843227      0.829548     -0.968937
  Na      0.000000      0.000000      6.140000
