    9
 0015.xyz Energy 0.108253
   N      0.515500     -0.298124     -0.344611
   C     -0.590086      0.341272      0.394466
   H      1.161922      0.401996     -0.731531
   H      0.164522     -0.862454     -1.129612
   H      1.062341     -0.921175      0.264234
   H     -1.128988      0.985743     -0.302548
   H     -0.154803      0.922138      1.209870
   H     -1.237059     -0.450025      0.777936
  Na      0.000000      0.000000      4.500000
