    9
 0016.xyz Energy 0.106292
   N      0.600813      0.050881     -0.331375
   C     -0.687746     -0.058256      0.379319
   H      0.733916     -0.729446     -0.987966
   H      1.392704      0.041580      0.324904
   H      0.657588      0.923757     -0.872468
   H     -0.685856     -0.999924      0.931446
   H     -1.483570     -0.042791     -0.367799
   H     -0.768671      0.793950      1.056792
  Na      0.000000      0.000000      4.600000
