    9
 0018.xyz Energy 0.0884157
   N      0.128405      0.091455     -0.669719
   C     -0.146971     -0.104686      0.766624
   H      1.124644     -0.049219     -0.882924
   H     -0.121703      1.041946     -0.972858
   H     -0.408036     -0.568891     -1.247726
   H      0.448588      0.621488      1.323012
   H      0.137980     -1.126396      1.024832
   H     -1.214517      0.057618      0.927173
  Na      0.000000      0.000000      5.540000
