    9
 0019.xyz Energy 0.092872
   N      0.283184      0.557083      0.287821
   C     -0.324166     -0.637679     -0.329474
   H     -0.307839      1.388401      0.156140
   H      1.203635      0.763739     -0.121987
   H      0.416588      0.429320      1.299650
   H     -0.438941     -0.440230     -1.396913
   H     -1.293034     -0.803089      0.145601
   H      0.347144     -1.480925     -0.156115
  Na      0.000000      0.000000      5.840000
