    9
 0020.xyz Energy 0.0830132
   N      0.609752      0.230148     -0.220474
   C     -0.697981     -0.263453      0.252362
   H      0.613090      0.364916     -1.240064
   H      1.364262     -0.430885      0.006753
   H      0.848300      1.132474      0.211755
   H     -0.892366     -1.218192     -0.239851
   H     -1.452298      0.478133     -0.017484
   H     -0.637135     -0.385341      1.335512
  Na      0.000000      0.000000      6.140000
