    9
 0023.xyz Energy 0.100638
   N      0.050525      0.029179     -0.685544
   C     -0.057823     -0.033394      0.784737
   H      1.026868      0.152210     -0.984467
   H     -0.491602      0.815050     -1.068147
   H     -0.301264     -0.832056     -1.124221
   H      0.329151      0.904151      1.188280
   H      0.535770     -0.883055      1.127498
   H     -1.112006     -0.163850      1.036637
  Na      0.000000      0.000000      4.780000
