    9
 0026.xyz Energy 0.100501
   N      0.069134     -0.082912      0.679501
   C     -0.079139      0.094922     -0.777816
   H     -0.369405      0.689582      1.197839
   H      1.059776     -0.116711      0.954028
   H     -0.369935     -0.957198      0.996931
   H      0.404604      1.034734     -1.050457
   H     -1.146775      0.122841     -1.003944
   H      0.404050     -0.752170     -1.268465
  Na      0.000000      0.000000      5.700000
