    9
 0028.xyz Energy 0.109044
   N     -0.413590      0.114922     -0.537690
   C      0.473423     -0.131548      0.615498
   H     -1.265742      0.616348     -0.254587
   H     -0.705746     -0.766098     -0.980782
   H      0.054986      0.682235     -1.256377
   H     -0.078653     -0.734992      1.338447
   H      0.746760      0.836574      1.039509
   H      1.354457     -0.663521      0.251413
  Na      0.000000      0.000000      4.380000
