    9
 0030.xyz Energy 0.113203
   N      0.143548     -0.672401      0.025415
   C     -0.164305      0.769694     -0.029092
   H      1.073940     -0.841966      0.429591
   H      0.132280     -1.093717     -0.912799
   H     -0.541129     -1.180262      0.600926
   H      0.593699      1.249684     -0.650884
   H     -0.136918      1.155851      0.991640
   H     -1.158799      0.882604     -0.464991
  Na      0.000000      0.000000      4.520000
