    9
 0031.xyz Energy 0.111363
   N      0.658869     -0.171613      0.099076
   C     -0.754198      0.196457     -0.113410
   H      1.160838      0.556333      0.624300
   H      1.150435     -0.302815     -0.794808
   H      0.741919     -1.048886      0.629561
   H     -0.774707      1.130138     -0.678569
   H     -1.218011      0.320700      0.867000
   H     -1.229272     -0.611669     -0.672883
  Na      0.000000      0.000000      4.660000
