    9
 0033.xyz Energy 0.0989294
   N      0.616459      0.262338      0.156626
   C     -0.705652     -0.300296     -0.179302
   H      1.049089      0.715528     -0.658964
   H      1.262487     -0.468146      0.483615
   H      0.545097      0.968252      0.901282
   H     -0.563095     -1.038541     -0.970667
   H     -1.341548      0.520050     -0.517574
   H     -1.109968     -0.764334      0.722347
  Na      0.000000      0.000000      5.340000
