    9
 0034.xyz Energy 0.0937184
   N      0.472291     -0.482905     -0.130841
   C     -0.540621      0.552779      0.149784
   H      0.850739     -0.882162      0.738129
   H      1.262928     -0.098848     -0.664949
   H      0.074923     -1.256760     -0.679627
   H     -0.059572      1.341426      0.731346
   H     -1.348658      0.085044      0.715524
   H     -0.901393      0.934970     -0.807058
  Na      0.000000      0.000000      5.440000
