    8
 0004.xyz Energy 0.114776
   C     -1.322543      0.227421     -0.562123
   C      0.104917     -0.011845      0.043972
   O      0.877829      1.019207      0.123715
   O      0.351134     -1.231131      0.398480
   H     -1.467815      1.282235     -0.825468
   H     -1.446498     -0.401403     -1.456383
   H     -2.084328     -0.085674      0.167123
  Cl      0.000000      0.000000      4.240000
