    8
 0008.xyz Energy 0.107096
   C     -0.871858     -1.029978      0.543904
   C      0.073183      0.077017     -0.042357
   O      1.333375     -0.201089     -0.079654
   O     -0.523601      1.158641     -0.425627
   H     -0.302872     -1.921908      0.833392
   H     -1.403982     -0.626244      1.418163
   H     -1.630045     -1.295998     -0.207448
  Cl      0.000000      0.000000      3.880000
