    8
 0010.xyz Energy 0.10845
   C     -1.383376      0.247378     -0.376693
   C      0.110142     -0.019747      0.023670
   O      0.924175     -0.298665     -0.938814
   O      0.361166      0.068623      1.289424
   H     -1.520685      0.171281     -1.462254
   H     -2.031107     -0.480876      0.133774
   H     -1.679133      1.248714     -0.030286
  Cl      0.000000      0.000000      5.040000
