    8
 0012.xyz Energy 0.106574
   C      1.045177     -0.353250     -0.948495
   C     -0.082563      0.033225      0.071839
   O     -0.507063      1.251708      0.028027
   O     -0.463998     -0.923896      0.853749
   H      1.307951      0.498488     -1.587696
   H      1.933343     -0.693182     -0.395240
   H      0.702278     -1.195399     -1.567647
  Cl      0.000000      0.000000      5.040000
