    8
 0013.xyz Energy 0.0969248
   C     -1.011479      0.873612      0.574921
   C      0.077719     -0.066834     -0.050739
   O      0.077924     -0.172825     -1.337434
   O      0.862037     -0.639305      0.803707
   H     -1.628980      1.335830     -0.204909
   H     -1.646721      0.288768      1.256765
   H     -0.518033      1.653140      1.174080
  Cl      0.000000      0.000000      5.040000
