    8
 0017.xyz Energy 0.108302
   C     -0.374262     -1.322966     -0.475934
   C      0.027905      0.102219      0.043059
   O     -0.216463      0.353659      1.285590
   O      0.564207      0.875945     -0.843893
   H     -0.807184     -1.928698      0.329518
   H     -1.100071     -1.218355     -1.296143
   H      0.514543     -1.824571     -0.886497
  Cl      0.000000      0.000000      5.040000
