    8
 0018.xyz Energy 0.0801584
   C      0.504146      0.749285      1.140715
   C     -0.040635     -0.053586     -0.092514
   O     -0.550748      0.641496     -1.053485
   O      0.082181     -1.338272     -0.006183
   H      0.382201      1.829372      0.993643
   H     -0.034693      0.432328      2.046075
   H      1.567050      0.508574      1.290503
  Cl      0.000000      0.000000      5.660000
