    8
 0019.xyz Energy 0.104026
   C     -0.274460     -0.939105     -1.076837
   C      0.018599      0.078102      0.081460
   O     -0.324268      1.305042     -0.128016
   O      0.579763     -0.432729      1.128887
   H     -0.762901     -0.442477     -1.924111
   H      0.670924     -1.395722     -1.405829
   H     -0.914770     -1.748686     -0.696409
  Cl      0.000000      0.000000      5.380000
