    8
 0021.xyz Energy 0.129283
   C     -1.212245     -0.804460      0.011398
   C      0.095242      0.062940     -0.006999
   O      0.654658      0.238576     -1.157228
   O      0.471940      0.508836      1.147224
   H     -1.480744     -1.135217     -0.999342
   H     -1.058159     -1.678324      0.661863
   H     -2.033877     -0.214516      0.443867
  Cl      0.000000      0.000000      4.020000
