    8
 0023.xyz Energy 0.112787
   C     -1.439297      0.212713     -0.000598
   C      0.112840     -0.017651      0.006079
   O      0.669456     -0.162088      1.161993
   O      0.668074     -0.035295     -1.161979
   H     -1.844513      0.200635      1.018588
   H     -1.660158      1.178530     -0.479037
   H     -1.920484     -0.570363     -0.605077
  Cl      0.000000      0.000000      4.600000
