    8
 0024.xyz Energy 0.0928897
   C      0.188861     -1.230633      0.752793
   C     -0.015850      0.099631     -0.053888
   O     -0.402028      1.129987      0.621429
   O      0.226430      0.013270     -1.321483
   H     -0.018594     -1.081325      1.819449
   H     -0.477861     -2.006342      0.347525
   H      1.222185     -1.582747      0.617143
  Cl      0.000000      0.000000      5.040000
