    8
 0026.xyz Energy 0.0996247
   C      0.725100      1.170835     -0.469253
   C     -0.059508     -0.088546      0.041230
   O     -0.740168      0.057672      1.128493
   O      0.066753     -1.146052     -0.692730
   H      0.561180      2.031989      0.190013
   H      1.798684      0.934674     -0.515414
   H      0.398351      1.413113     -1.491349
  Cl      0.000000      0.000000      5.380000
