    8
 0028.xyz Energy 0.137699
   C     -0.612561     -1.274475      0.342500
   C      0.051518      0.099751     -0.021842
   O      0.852542      0.603962      0.856197
   O     -0.283777      0.580486     -1.174850
   H     -0.272971     -1.629253      1.323264
   H     -1.706666     -1.158672      0.345402
   H     -0.363235     -2.015325     -0.431529
  Cl      0.000000      0.000000      3.420000
