    8
 0029.xyz Energy 0.120353
   C     -0.990146     -1.059499      0.117882
   C      0.080473      0.081167     -0.004178
   O      0.917088      0.193798      0.972658
   O      0.002645      0.791067     -1.082576
   H     -0.856148     -1.628968      1.045695
   H     -1.996632     -0.615769      0.093923
   H     -0.906881     -1.730650     -0.749740
  Cl      0.000000      0.000000      4.060000
