    8
 0030.xyz Energy 0.0842053
   C     -0.523374     -0.500580      1.261873
   C      0.035387      0.040269     -0.101033
   O     -0.835461      0.308112     -1.015748
   O      1.322351      0.156784     -0.156753
   H     -1.618512     -0.559250      1.244051
   H     -0.099014     -1.496597      1.457713
   H     -0.196235      0.161401      2.077290
  Cl      0.000000      0.000000      5.220000
