    8
 0031.xyz Energy 0.107938
   C      0.903269     -1.139582      0.047754
   C     -0.068393      0.091663      0.001363
   O     -0.031328      0.893975      1.012176
   O     -0.808419      0.164690     -1.056930
   H      1.509086     -1.130079      0.962074
   H      0.314513     -2.067756     -0.000684
   H      1.557685     -1.119806     -0.836267
  Cl      0.000000      0.000000      4.680000
