    8
 0034.xyz Energy 0.101842
   C      0.144608      1.255444     -0.720953
   C     -0.005563     -0.099981      0.055265
   O      0.991126     -0.917685     -0.013950
   O     -1.126116     -0.248907      0.683867
   H      1.121130      1.320601     -1.216176
   H     -0.659195      1.336185     -1.467858
   H      0.023954      2.092561     -0.017518
  Cl      0.000000      0.000000      5.120000
