   19
 0005.xyz Energy 0.105017
   N      1.089223     -0.605872      0.037982
   C     -0.332767     -0.254915      0.385503
   H      1.417733     -1.405124      0.605703
   H      1.717562      0.195682      0.215239
   H      1.168726     -0.864546     -0.959768
   H     -0.349563     -0.024826      1.455245
   H     -0.932498     -1.152368      0.205332
   C     -0.921249      0.926820     -0.406050
   H     -0.341419      1.836627     -0.232416
   H     -1.951858      1.114126     -0.094564
   H     -0.921956      0.713393     -1.477759
   N     -0.113798      0.573873      4.477930
   C      0.130253     -0.656913      5.254452
   H     -1.081102      0.612272      4.130674
   H      0.510276      0.632410      3.662463
   H      0.043610      1.414692      5.049039
   H     -0.052499     -1.508578      4.596535
   H     -0.558943     -0.659827      6.101070
   H      1.167931     -0.637889      5.593031
