   19
 0006.xyz Energy 0.115632
   N      0.358776      0.659787      0.995436
   C     -0.242123     -0.472447      0.206153
   H      0.281432      0.479267      2.010551
   H     -0.126836      1.548498      0.787848
   H      1.359519      0.776412      0.763811
   H     -1.286008     -0.559886      0.522743
   H      0.295049     -1.380292      0.497400
   C     -0.178696     -0.302950     -1.322446
   H     -0.717959      0.594417     -1.635538
   H     -0.633616     -1.164682     -1.817145
   H      0.857251     -0.222670     -1.660795
   N      0.553769     -0.406662      5.043382
   C     -0.633900      0.465493      5.121926
   H      0.336080     -1.364573      5.347938
   H      1.315135     -0.057651      5.640369
   H      0.915035     -0.462152      4.081962
   H     -0.967340      0.482788      6.161207
   H     -1.401570      0.043839      4.470273
   H     -0.339114      1.462012      4.787523
