   19
 0007.xyz Energy 0.0827045
   N     -0.436174     -0.347864     -1.115201
   C     -0.378406     -0.190218      0.380730
   H     -1.284601     -0.868083     -1.395511
   H      0.388933     -0.866220     -1.460490
   H     -0.455638      0.575449     -1.579800
   H     -0.393279     -1.198427      0.806011
   H     -1.291296      0.334776      0.678340
   C      0.850753      0.573396      0.905544
   H      1.774134      0.059911      0.626612
   H      0.814846      0.643293      1.995537
   H      0.879616      1.587380      0.499202
   N     -0.019134     -0.543347      5.721642
   C      0.021891      0.621970      4.817356
   H     -0.945837     -0.648970      6.155004
   H      0.668974     -0.453034      6.480742
   H      0.188325     -1.415903      5.218128
   H     -0.205165      1.511302      5.408221
   H     -0.726789      0.466591      4.038193
   H      1.025520      0.679121      4.391636
