   19
 0008.xyz Energy 0.105773
   N      0.167267     -1.136930     -0.484091
   C     -0.522527     -0.003218      0.226459
   H     -0.442763     -1.970952     -0.520122
   H      1.040768     -1.396933      0.003877
   H      0.405900     -0.869614     -1.453799
   H     -0.773624     -0.363919      1.228665
   H     -1.448257      0.196414     -0.321929
   C      0.302472      1.291717      0.335488
   H      1.228311      1.115924      0.888677
   H     -0.268965      2.060361      0.861709
   H      0.556432      1.674068     -0.656189
   N      0.016829     -0.047320      4.073813
   C     -0.019275      0.054161      5.545472
   H     -0.924017     -0.193700      3.685070
   H      0.604325     -0.833714      3.766708
   H      0.397806      0.808142      3.648421
   H     -0.430804     -0.879037      5.934538
   H     -0.654986      0.902472      5.806244
   H      1.003507      0.208036      5.894776
