   19
 0009.xyz Energy 0.0961664
   N     -0.660447     -0.485326     -0.939787
   C     -0.334720     -0.035602      0.459373
   H     -1.611297     -0.889228     -0.981945
   H      0.010138     -1.204829     -1.258142
   H     -0.618285      0.310096     -1.598774
   H     -0.429471     -0.914524      1.104422
   H     -1.097751      0.696391      0.741382
   C      1.063822      0.583607      0.632661
   H      1.841866     -0.135372      0.364674
   H      1.218405      0.882224      1.672466
   H      1.176187      1.469449      0.002765
   N     -0.588886      0.322391      4.650509
   C      0.674094     -0.369030      4.327703
   H     -0.975268      0.801162      3.826358
   H     -0.451640      1.030541      5.383698
   H     -1.301988     -0.337776      4.987530
   H      1.385620      0.381315      3.977990
   H      0.462980     -1.103390      3.548020
   H      1.031112     -0.854525      5.237981
