   19
 0012.xyz Energy 0.103916
   N      0.968189      0.721663     -0.311037
   C      0.157508     -0.275434      0.472923
   H      1.895311      0.862271      0.124512
   H      0.487082      1.635932     -0.348014
   H      1.113606      0.393390     -1.280485
   H      0.070585      0.117562      1.490552
   H      0.737127     -1.203310      0.498351
   C     -1.245766     -0.558600     -0.092767
   H     -1.844971      0.354862     -0.118052
   H     -1.764350     -1.289904      0.532156
   H     -1.180936     -0.960876     -1.106712
   N      0.159253     -0.570692      4.330252
   C     -0.182290      0.653273      5.080344
   H      0.897248     -0.391525      3.636709
   H     -0.656784     -0.940675      3.825201
   H      0.497426     -1.312463      4.957414
   H     -0.532439      1.397790      4.362933
   H      0.720003      0.994471      5.591433
   H     -0.966304      0.398490      5.796013
