   19
 0014.xyz Energy 0.0793157
   N     -0.538624      0.216091     -1.103685
   C      0.478472     -0.286864     -0.114467
   H     -0.261351     -0.028208     -2.069328
   H     -0.629268      1.244187     -1.044346
   H     -1.466123     -0.201457     -0.918920
   H      1.436292      0.166874     -0.386999
   H      0.545678     -1.370185     -0.253957
   C      0.159973      0.025227      1.358803
   H      0.097607      1.103968      1.521680
   H      0.944182     -0.373198      2.007290
   H     -0.789866     -0.427172      1.654188
   N     -0.196521      0.442845      5.988511
   C      0.224962     -0.506911      4.940800
   H     -0.135408      1.415298      5.659363
   H      0.393854      0.362242      6.826867
   H     -1.169145      0.274512      6.277621
   H      1.259518     -0.277527      4.678762
   H     -0.436401     -0.372682      4.082696
   H      0.137837     -1.515392      5.349638
