   19
 0016.xyz Energy 0.0819412
   N      0.374930     -0.427884     -1.109628
   C     -0.212662      0.519173     -0.097789
   H      0.350647     -0.012705     -2.056235
   H     -0.156281     -1.314458     -1.132437
   H      1.358559     -0.646196     -0.878216
   H     -1.236779      0.731089     -0.420042
   H      0.374551      1.441133     -0.150046
   C     -0.224749     -0.003908      1.349832
   H     -0.814588     -0.920660      1.425697
   H     -0.664811      0.741399      2.017009
   H      0.790772     -0.213520      1.694636
   N      0.144240     -0.045724      5.931177
   C     -0.165104      0.052352      4.491709
   H      0.305827      0.882356      6.343844
   H      0.989170     -0.608758      6.095388
   H     -0.626597     -0.485616      6.451010
   H      0.686514      0.524752      3.998583
   H     -1.066698      0.658468      4.384406
   H     -0.325234     -0.959634      4.114860
