   19
 0018.xyz Energy 0.0742263
   N     -0.179526      0.104912     -1.229510
   C      0.121033      0.525048      0.184403
   H     -0.140859      0.917014     -1.868278
   H     -1.123297     -0.311984     -1.294414
   H      0.506638     -0.595768     -1.556564
   H     -0.618581      1.285742      0.452520
   H      1.114629      0.983522      0.173069
   C      0.089483     -0.613339      1.219992
   H     -0.898410     -1.079200      1.253782
   H      0.317906     -0.224680      2.215496
   H      0.828205     -1.380472      0.975231
   N      0.077714      0.554495      6.459838
   C     -0.088967     -0.634731      5.602318
   H     -0.121934      0.337075      7.445032
   H     -0.556067      1.313125      6.175794
   H      1.038161      0.919413      6.411927
   H     -1.122857     -0.972057      5.696495
   H      0.606951     -1.399356      5.952758
   H      0.135936     -0.340160      4.575469
