   19
 0019.xyz Energy 0.12249
   N      0.327198      0.423299      1.126362
   C      0.155109      0.405119     -0.368982
   H      0.783150      1.299749      1.431274
   H      0.912873     -0.370006      1.436801
   H     -0.588695      0.354111      1.600799
   H      1.153460      0.513824     -0.803781
   H     -0.443420      1.283713     -0.628590
   C     -0.516909     -0.861313     -0.929257
   H      0.070724     -1.750615     -0.688570
   H     -0.603564     -0.793315     -2.016514
   H     -1.520170     -0.983753     -0.513823
   N      0.080233     -0.599610      4.752272
   C     -0.091854      0.686363      5.455154
   H     -0.805111     -1.120531      4.701837
   H      0.765336     -1.199374      5.230599
   H      0.411706     -0.458673      3.788850
   H     -0.442970      0.470103      6.465864
   H     -0.826780      1.273839      4.901515
   H      0.877401      1.188276      5.475207
