   19
 0021.xyz Energy 0.0909913
   N      0.158213     -0.558298     -1.103722
   C     -0.271343     -0.378512      0.327765
   H     -0.106574     -1.495897     -1.449880
   H      1.183319     -0.458962     -1.193208
   H     -0.289354      0.148226     -1.711379
   H      0.210676     -1.173480      0.905046
   H     -1.355166     -0.527643      0.353249
   C      0.076217      0.989250      0.942416
   H      1.156425      1.154165      0.935076
   H     -0.269360      1.036642      1.978077
   H     -0.403398      1.797672      0.385160
   N      0.274660      0.613465      4.906959
   C     -0.314390     -0.702232      4.591772
   H      1.047053      0.841212      4.267210
   H      0.649013      0.636723      5.864664
   H     -0.423368      1.364887      4.829236
   H      0.471970     -1.452727      4.691681
   H     -0.691590     -0.662683      3.568093
   H     -1.123566     -0.884502      5.301549
