   19
 0022.xyz Energy 0.121166
   N     -0.386737     -0.857491      0.818581
   C      0.337435      0.353018      0.292993
   H     -0.196257     -0.988529      1.826338
   H     -0.083560     -1.710461      0.319337
   H     -1.407908     -0.755580      0.693835
   H      1.402732      0.192844      0.485491
   H     -0.006131      1.207673      0.883830
   C      0.120633      0.639506     -1.203766
   H      0.466310     -0.199277     -1.812905
   H      0.678075      1.530806     -1.502271
   H     -0.937395      0.811533     -1.416125
   N      0.170217     -0.425458      4.606788
   C     -0.194845      0.487028      5.707461
   H      0.613168      0.082674      3.830042
   H     -0.656487     -0.907430      4.229768
   H      0.832056     -1.146926      4.922021
   H     -0.895004      1.224841      5.311233
   H      0.720180      0.965081      6.062362
   H     -0.657512     -0.109390      6.496130
