   19
 0023.xyz Energy 0.0889901
   N      0.234357     -0.853215     -0.878654
   C      0.187961     -0.224680      0.488383
   H      0.668592     -1.790556     -0.835531
   H      0.787064     -0.271246     -1.530226
   H     -0.718453     -0.956567     -1.266222
   H      1.219864     -0.175861      0.849443
   H     -0.381283     -0.904826      1.129416
   C     -0.442610      1.178700      0.536037
   H      0.117295      1.876618     -0.091273
   H     -0.437507      1.560424      1.560011
   H     -1.477870      1.150429      0.187398
   N     -0.446226      0.086433      5.316514
   C      0.510801     -0.098934      4.208759
   H     -0.109075      0.787017      5.989751
   H     -0.597130     -0.790657      5.832092
   H     -1.361694      0.404080      4.971639
   H      1.456928     -0.434506      4.637505
   H      0.627421      0.861917      3.703857
   H      0.097727     -0.850049      3.532764
