   19
 0024.xyz Energy 0.10034
   N     -0.352470     -1.046945     -0.578449
   C      0.208718     -0.163962      0.503867
   H     -0.317326     -2.040527     -0.294569
   H      0.188367     -0.941993     -1.453205
   H     -1.337340     -0.802471     -0.775936
   H      1.235600     -0.496980      0.683267
   H     -0.387275     -0.348880      1.402842
   C      0.203005      1.341097      0.181169
   H      0.801189      1.548739     -0.709428
   H      0.624372      1.907742      1.015210
   H     -0.815670      1.696271      0.007204
   N     -0.412789      0.542529      4.472965
   C      0.472526     -0.621021      4.273588
   H      0.120760      1.421687      4.484997
   H     -0.922181      0.477486      5.364127
   H     -1.111554      0.614836      3.721688
   H      1.187044     -0.642197      5.098574
   H      0.981671     -0.493148      3.316414
   H     -0.150133     -1.517713      4.270334
