   19
 0025.xyz Energy 0.0988468
   N     -0.924316      0.430462      0.717825
   C     -0.221744     -0.055541     -0.521607
   H     -1.909409      0.666642      0.510845
   H     -0.461842      1.275577      1.092814
   H     -0.914405     -0.296551      1.452733
   H     -0.298079      0.745455     -1.263326
   H     -0.779545     -0.926236     -0.879809
   C      1.256523     -0.435590     -0.322465
   H      1.833951      0.423898      0.026759
   H      1.689141     -0.776851     -1.266205
   H      1.354322     -1.241439      0.409077
   N     -0.045140     -0.209555      5.833777
   C      0.051662      0.239885      4.431630
   H     -0.961648      0.021778      6.239037
   H      0.673561      0.234803      6.420202
   H      0.079030     -1.227708      5.910370
   H     -0.087773      1.322450      4.417596
   H     -0.732962     -0.264414      3.864349
   H      1.041474     -0.033341      4.060964
