   19
 0027.xyz Energy 0.0789981
   N     -0.206863      0.344885     -1.180336
   C     -0.513137     -0.028830      0.245333
   H     -1.076674      0.556227     -1.697823
   H      0.277202     -0.429121     -1.665428
   H      0.401346      1.180038     -1.216942
   H     -1.182170     -0.894070      0.208951
   H     -1.049776      0.817390      0.685209
   C      0.717686     -0.363807      1.106862
   H      1.263333     -1.213521      0.689303
   H      0.408562     -0.622416      2.122650
   H      1.395409      0.491520      1.163591
   N      0.051340     -0.224410      6.148367
   C     -0.058769      0.256867      4.757816
   H      0.337056     -1.211828      6.181665
   H     -0.846089     -0.145053      6.644557
   H      0.746903      0.317080      6.678367
   H     -0.808074     -0.354317      4.251274
   H      0.920444      0.147058      4.287876
   H     -0.363373      1.304693      4.790241
