   19
 0028.xyz Energy 0.0771819
   N     -0.254043     -0.192226     -1.205588
   C      0.543249      0.169866      0.018836
   H      0.321696     -0.094595     -2.058830
   H     -1.078658      0.423985     -1.300527
   H     -0.585624     -1.169839     -1.150233
   H      0.887679      1.199164     -0.120756
   H      1.411422     -0.496051      0.038573
   C     -0.223623      0.057958      1.348780
   H     -1.090632      0.723071      1.353319
   H      0.424779      0.336559      2.183177
   H     -0.569087     -0.965829      1.511958
   N     -0.141290      0.050953      6.291428
   C      0.161721     -0.058330      4.851420
   H     -0.916956     -0.568999      6.559273
   H     -0.410032      1.010547      6.546059
   H      0.672340     -0.205340      6.866092
   H     -0.735974      0.225186      4.298837
   H      0.438409     -1.094197      4.646029
   H      0.988552      0.619809      4.631758
