   19
 0029.xyz Energy 0.1013
   N     -0.799801      0.648990      0.702895
   C     -0.316623     -0.259047     -0.396199
   H     -1.826950      0.759527      0.660751
   H     -0.370752      1.585749      0.618531
   H     -0.554583      0.263381      1.630209
   H     -0.636337      0.190294     -1.341422
   H     -0.831879     -1.215514     -0.264894
   C      1.204727     -0.491656     -0.423650
   H      1.738497      0.451549     -0.563485
   H      1.469865     -1.159335     -1.247161
   H      1.543757     -0.948815      0.509182
   N      0.201138     -0.010729      5.697878
   C     -0.230248      0.012271      4.286935
   H      0.105803     -0.950952      6.103625
   H     -0.360021      0.632342      6.271846
   H      1.186321      0.269019      5.793142
   H     -1.277939     -0.292333      4.253075
   H      0.399901     -0.686654      3.733603
   H     -0.105496      1.031460      3.916176
