   16
 0000.xyz Energy 0.131119
   H      0.219703     -1.000015     -0.016294
   N     -0.000001      0.000005      0.000000
   H      0.073653      0.381110     -0.947532
   H     -0.953330      0.134361      0.348800
   H      0.659991      0.484468      0.615024
   N      0.047753      0.135134      3.541295
   C      0.263967      0.456047      4.996034
   H      0.452486      0.872590      2.940147
   H     -0.961375      0.063273      3.328659
   H      0.494955     -0.763704      3.294641
   H     -0.203939      1.428320      5.178572
   H      1.344612      0.548504      5.141703
   C     -0.302731     -0.582608      5.980623
   H     -1.383853     -0.683500      5.857757
   H     -0.103344     -0.275100      7.010159
   H      0.158761     -1.560163      5.820860
