   16
 0003.xyz Energy 0.101826
   H     -0.662136      0.332456     -0.706834
   N      0.000004     -0.000002      0.000004
   H      0.933444      0.366045     -0.207797
   H     -0.296080      0.325163      0.924747
   H      0.024721     -1.023639     -0.010170
   N     -0.936328      0.122809      5.194334
   C      0.032705      0.497679      4.105092
   H     -1.573748      0.909611      5.403300
   H     -0.432806     -0.123924      6.062842
   H     -1.509015     -0.689777      4.910657
   H      0.579189      1.378105      4.456910
   H     -0.565735      0.775944      3.232167
   C      1.030541     -0.607847      3.715861
   H      1.645334     -0.894164      4.572688
   H      1.693966     -0.255410      2.922188
   H      0.504650     -1.494234      3.352724
