   16
 0004.xyz Energy 0.120704
   H      0.131171     -0.353418     -0.952079
   N     -0.000001      0.000002      0.000005
   H      0.319077     -0.703460      0.672175
   H      0.542257      0.859932      0.122583
   H     -0.992496      0.196919      0.157249
   N     -1.198267     -0.312412      3.906581
   C      0.005947      0.565777      3.695275
   H     -2.064241      0.252262      3.922760
   H     -1.127516     -0.820404      4.804165
   H     -1.281159     -1.008513      3.146772
   H      0.013622      1.294219      4.511904
   H     -0.150262      1.093542      2.749430
   C      1.352625     -0.178663      3.654836
   H      1.532485     -0.705634      4.595077
   H      2.170650      0.528812      3.498076
   H      1.369134     -0.905790      2.839284
