   16
 0005.xyz Energy 0.130068
   H     -0.073371      0.887154     -0.506101
   N      0.000000     -0.000005      0.000003
   H      0.843114      0.007241      0.581028
   H     -0.823936     -0.122328      0.595581
   H      0.054188     -0.772000     -0.670546
   N      0.454948     -0.999660      3.509548
   C     -0.054858     -0.153785      4.645591
   H      0.709951     -1.944524      3.843067
   H      1.293086     -0.571290      3.082065
   H     -0.266556     -1.100255      2.776028
   H      0.741937     -0.116573      5.394793
   H     -0.916465     -0.679380      5.068608
   C     -0.463988      1.277931      4.255504
   H      0.385941      1.823899      3.838802
   H     -0.821255      1.821161      5.133867
   H     -1.266156      1.263205      3.513600
