   16
 0006.xyz Energy 0.13347
   H     -0.157778     -0.904498      0.453382
   N      0.000001      0.000005     -0.000002
   H     -0.697262      0.138627     -0.736950
   H     -0.083094      0.748613      0.693705
   H      0.938122      0.017189     -0.410102
   N     -0.274147      0.524285      3.482321
   C      0.314976      0.382796      4.860331
   H     -0.032827      1.443066      3.074111
   H     -1.304475      0.446456      3.515266
   H      0.085823     -0.212847      2.853198
   H     -0.080983      1.208092      5.460059
   H      1.397170      0.506814      4.755276
   C      0.014107     -0.954730      5.560237
   H     -1.062704     -1.093992      5.683460
   H      0.476521     -0.975316      6.550192
   H      0.409736     -1.792734      4.981153
