   16
 0008.xyz Energy 0.0935232
   H      0.792532     -0.617076      0.199185
   N     -0.000004      0.000003     -0.000001
   H     -0.815308     -0.563690     -0.256929
   H     -0.217636      0.555490      0.832236
   H      0.240473      0.625229     -0.774476
   N     -0.731036     -0.779451      5.562629
   C     -0.118662      0.521248      5.116337
   H     -1.430735     -0.617909      6.306508
   H     -0.006459     -1.416440      5.934048
   H     -1.202683     -1.251594      4.773092
   H      0.331697      0.979441      6.002230
   H     -0.940643      1.153972      4.767671
   C      0.940388      0.392645      4.006724
   H      1.775737     -0.228834      4.338470
   H      1.331907      1.378075      3.742331
   H      0.508189     -0.055212      3.108537
