   16
 0009.xyz Energy 0.084749
   H      0.044259      1.003509     -0.198935
   N     -0.000000     -0.000005      0.000001
   H      0.919245     -0.420950     -0.162098
   H     -0.273345     -0.142643      0.976467
   H     -0.690156     -0.439840     -0.615449
   N     -0.190252     -0.123146      6.666202
   C      0.483796     -0.279319      5.329314
   H      0.348762     -0.604231      7.405830
   H     -1.141563     -0.527252      6.645602
   H     -0.268637      0.875470      6.921857
   H      0.562331     -1.353954      5.138104
   H      1.490156      0.137999      5.432487
   C     -0.239951      0.402585      4.154340
   H     -1.245145     -0.006999      4.028141
   H      0.313239      0.241974      3.225660
   H     -0.321015      1.479425      4.321540
