   16
 0010.xyz Energy 0.132146
   H     -0.437816      0.693255      0.613416
   N      0.000002     -0.000004     -0.000003
   H     -0.301537      0.159681     -0.965435
   H      1.018573      0.087491      0.058359
   H     -0.279253     -0.940376      0.293706
   N      0.940167      0.022898      3.441164
   C     -0.175186     -0.541520      4.279864
   H      1.380655     -0.719025      2.871471
   H      1.669387      0.446185      4.039314
   H      0.583469      0.752191      2.801135
   H      0.264374     -1.324315      4.905634
   H     -0.889933     -0.998397      3.588517
   C     -0.900676      0.483979      5.169461
   H     -0.205317      0.945874      5.874605
   H     -1.692332     -0.005804      5.741873
   H     -1.355140      1.270770      4.562391
