   16
 0011.xyz Energy 0.112458
   H      0.098422      1.009679     -0.139380
   N     -0.000001     -0.000006      0.000001
   H     -0.674885     -0.373334     -0.673527
   H      0.907409     -0.453758     -0.138798
   H     -0.330939     -0.182510      0.951694
   N     -0.973788     -0.730088      4.288632
   C      0.346899     -0.030338      4.109368
   H     -1.198261     -1.305361      3.459354
   H     -1.735942     -0.044395      4.421541
   H     -0.949613     -1.350840      5.114961
   H      0.261456      0.580076      3.205119
   H      1.096993     -0.809560      3.942842
   C      0.777093      0.856141      5.291931
   H      0.044925      1.647700      5.469312
   H      1.741861      1.324346      5.081534
   H      0.877113      0.263266      6.204404
