   16
 0013.xyz Energy 0.0996076
   H     -0.489560      0.689047     -0.578023
   N      0.000003     -0.000004      0.000003
   H     -0.391230      0.008587      0.946230
   H     -0.115262     -0.931846     -0.408570
   H      0.996015      0.234265      0.040319
   N     -0.596648      0.948805      5.226545
   C     -0.240446     -0.059616      4.167203
   H     -1.368900      1.557505      4.906953
   H      0.215767      1.548196      5.448877
   H     -0.896982      0.475947      6.095419
   H      0.034796      0.505936      3.271680
   H     -1.148609     -0.633933      3.959935
   C      0.902739     -1.019298      4.543376
   H      1.822838     -0.465555      4.745581
   H      1.096443     -1.715571      3.723654
   H      0.643946     -1.601039      5.431473
