   16
 0014.xyz Energy 0.112311
   H      0.785041     -0.633452     -0.176107
   N     -0.000004      0.000003      0.000001
   H      0.202052      0.916180     -0.410214
   H     -0.849753     -0.383662     -0.423409
   H     -0.137280      0.100885      1.009717
   N      0.460130      0.398330      4.411632
   C     -0.497206     -0.248696      5.376445
   H      0.099248      0.340637      3.444438
   H      1.381237     -0.070102      4.440800
   H      0.597143      1.395869      4.645901
   H     -0.620152     -1.286623      5.052159
   H     -1.453387      0.272778      5.269949
   C     -0.053327     -0.217340      6.849997
   H      0.896577     -0.741679      6.979812
   H     -0.801309     -0.704859      7.480163
   H      0.066704      0.811963      7.196753
