   16
 0015.xyz Energy 0.131391
   H     -0.403823      0.771801      0.538345
   N      0.000002     -0.000004     -0.000003
   H     -0.752101     -0.551531     -0.422662
   H      0.602725      0.376696     -0.737139
   H      0.553168     -0.596907      0.621498
   N      0.602729      0.851417      3.496818
   C     -0.543166      0.170403      4.196206
   H      0.281567      1.711419      3.021128
   H      1.020996      0.227055      2.786928
   H      1.340298      1.112681      4.172445
   H     -1.295806     -0.047327      3.432207
   H     -0.955512      0.894704      4.905374
   C     -0.171704     -1.125555      4.939090
   H      0.234086     -1.866710      4.246180
   H     -1.056266     -1.553530      5.417262
   H      0.573344     -0.928238      5.713739
