   16
 0016.xyz Energy 0.100142
   H     -1.019845      0.079185      0.047010
   N      0.000006     -0.000000     -0.000000
   H      0.256231     -0.954461     -0.268024
   H      0.361770      0.658639     -0.695607
   H      0.401767      0.216643      0.916625
   N     -1.000496      0.532671      5.179808
   C     -0.171944     -0.189475      4.151214
   H     -1.971404      0.655795      4.846330
   H     -0.605879      1.467719      5.376483
   H     -1.028692      0.000749      6.065812
   H     -0.212064      0.408756      3.235747
   H     -0.661965     -1.150941      3.969491
   C      1.295976     -0.425321      4.549904
   H      1.806759      0.524303      4.727147
   H      1.823907     -0.953202      3.751849
   H      1.358552     -1.029404      5.458352
