   16
 0019.xyz Energy 0.0959681
   H      0.621691     -0.371432      0.723950
   N     -0.000003      0.000002     -0.000004
   H     -0.786434     -0.641389     -0.136486
   H     -0.353202      0.916162      0.290599
   H      0.517992      0.096631     -0.878008
   N      0.361494     -0.409062      5.801125
   C      0.476248      0.047810      4.371406
   H      1.292466     -0.640458      6.186839
   H     -0.234379     -1.251085      5.869323
   H     -0.056471      0.331305      6.389258
   H      0.952797     -0.766073      3.816369
   H      1.141721      0.916547      4.370033
   C     -0.858227      0.418613      3.699805
   H     -1.534882     -0.439256      3.682516
   H     -0.686201      0.738588      2.669133
   H     -1.346826      1.236972      4.234286
