   16
 0022.xyz Energy 0.122741
   H     -0.256594      0.953284     -0.271981
   N      0.000001     -0.000005      0.000001
   H      0.995500     -0.030838      0.237728
   H     -0.554040     -0.283780      0.813057
   H     -0.184886     -0.638594     -0.778824
   N     -0.310480      1.169052      3.836930
   C      0.487055      0.039762      4.432447
   H      0.145376      2.077729      4.025425
   H     -1.262547      1.196176      4.238865
   H     -0.394996      1.056804      2.812726
   H      0.564079      0.238353      5.505852
   H      1.486137      0.090573      3.988811
   C     -0.106743     -1.362547      4.208163
   H     -1.102290     -1.437409      4.652440
   H      0.530861     -2.120824      4.669400
   H     -0.183914     -1.584567      3.140988
