   16
 0023.xyz Energy 0.115075
   H     -0.957007     -0.342125      0.125111
   N      0.000005      0.000002     -0.000001
   H      0.156799      0.806443      0.611188
   H      0.662256     -0.743465      0.239226
   H      0.137880      0.279122     -0.975516
   N      0.476785     -1.050916      4.252422
   C      0.441496      0.352881      3.710106
   H      1.443168     -1.323295      4.499288
   H      0.121215     -1.722744      3.551755
   H     -0.107543     -1.129758      5.101588
   H      1.102103      0.371882      2.837864
   H      0.858627      1.001768      4.486320
   C     -0.956174      0.858887      3.310301
   H     -1.387281      0.229039      2.528292
   H     -0.892955      1.881145      2.929180
   H     -1.629975      0.856344      4.170590
