   16
 0024.xyz Energy 0.128577
   H      0.534858     -0.521992     -0.700011
   N     -0.000003      0.000003      0.000004
   H      0.541924      0.812598      0.307393
   H     -0.883759      0.314578     -0.410563
   H     -0.192983     -0.605223      0.803128
   N     -0.197021      0.422162      3.623327
   C     -0.363023      0.285501      5.113215
   H     -0.849289      1.130230      3.246212
   H     -0.387909     -0.476886      3.150048
   H      0.766581      0.713301      3.387854
   H     -1.406778      0.009049      5.291313
   H     -0.178769      1.274697      5.543450
   C      0.565150     -0.747392      5.777288
   H      0.390376     -1.745282      5.367691
   H      0.381236     -0.783232      6.853928
   H      1.613879     -0.484486      5.618672
