   16
 0027.xyz Energy 0.106702
   H      0.321836      0.274853     -0.932439
   N     -0.000002     -0.000001      0.000005
   H     -0.975382      0.286502      0.122612
   H      0.072338     -1.016508      0.100152
   H      0.581233      0.455174      0.709604
   N      0.900210      0.820166      4.688104
   C     -0.193316      0.144988      3.904310
   H      1.286143      1.621767      4.161301
   H      1.671850      0.160233      4.882472
   H      0.539701      1.171107      5.591216
   H      0.247313     -0.170609      2.953617
   H     -0.956160      0.904630      3.707912
   C     -0.838313     -1.066202      4.601709
   H     -0.093983     -1.841598      4.798770
   H     -1.618762     -1.495193      3.968364
   H     -1.292782     -0.770413      5.550434
