   16
 0028.xyz Energy 0.122745
   H     -0.948604     -0.304090      0.237159
   N      0.000005      0.000002     -0.000001
   H      0.607547     -0.818910     -0.093588
   H     -0.017837      0.514711     -0.885046
   H      0.358822      0.608266      0.741493
   N      0.985776     -0.440171      3.835960
   C     -0.099870     -0.375122      4.876699
   H      1.565060     -1.286913      3.964360
   H      1.603647      0.386193      3.899814
   H      0.580100     -0.467879      2.885488
   H      0.396075     -0.381444      5.852183
   H     -0.691951     -1.289570      4.772855
   C     -1.023299      0.852191      4.774964
   H     -0.452075      1.777161      4.885569
   H     -1.779896      0.821868      5.562938
   H     -1.535892      0.872571      3.810110
