   16
 0029.xyz Energy 0.118998
   H     -0.240955      0.988883      0.112323
   N      0.000001     -0.000005     -0.000001
   H      1.015477     -0.095751     -0.090141
   H     -0.320975     -0.524628      0.818714
   H     -0.453565     -0.368429     -0.840887
   N     -0.309781     -0.830784      4.003208
   C     -0.320689     -0.126172      5.333396
   H     -0.985148     -1.613655      3.998627
   H      0.628838     -1.213201      3.799564
   H     -0.565642     -0.179507      3.242214
   H     -0.074771     -0.876555      6.091036
   H     -1.344907      0.222526      5.497554
   C      0.653144      1.060477      5.446890
   H      1.684113      0.731586      5.295121
   H      0.581922      1.513925      6.438643
   H      0.418867      1.826514      4.703645
