    8
 0003.xyz Energy 0.0972035
   O     -0.851588     -0.438915     -0.653884
   O      0.984653      0.513290      0.335285
   C     -0.130202     -0.072774      0.311760
   H     -0.560708     -0.313397      1.342329
   O     -0.008693     -0.966106      4.298145
   O      0.276136      1.043520      5.364545
   C     -0.261700     -0.075746      5.152647
   H     -1.126838     -0.326243      5.855565
