    8
 0005.xyz Energy 0.117479
   O     -0.059112      0.076699      1.155870
   O      0.112795      0.270762     -1.122225
   C     -0.052530     -0.339999     -0.032929
   H     -0.226191     -1.463974     -0.141681
   O      0.499965      0.380628      5.874972
   O     -0.504173     -0.034287      3.855942
   C      0.004115     -0.338905      4.967597
   H      0.017764     -1.459237      5.191153
