    8
 0007.xyz Energy 0.111774
   O     -0.528170     -0.368037     -0.964883
   O      0.684418      0.583367      0.732584
   C     -0.152889     -0.210703      0.227315
   H     -0.658364     -0.907290      0.978693
   O     -0.051855      0.150296      5.848972
   O     -0.069091      0.181495      3.556449
   C      0.118349     -0.324666      4.694690
   H      0.509587     -1.397948      4.677242
