    8
 0008.xyz Energy 0.122445
   O     -0.226236     -1.063722     -0.403393
   O     -0.062926      1.138135      0.214737
   C      0.282952     -0.072809      0.184607
   H      1.218328     -0.313603      0.794851
   O     -0.519052     -1.024279      3.516138
   O      0.618085      0.966653      3.509774
   C     -0.096903      0.056394      4.006914
   H     -0.417296      0.242729      5.087624
