    8
 0010.xyz Energy 0.124671
   O     -0.190023     -0.726123     -0.884336
   O     -0.157410      0.777169      0.846554
   C      0.339972     -0.049945      0.036975
   H      1.463850     -0.215125      0.159126
   O      0.624100      0.689894      4.432791
   O     -0.886129     -0.490043      3.174264
   C      0.256398     -0.195563      3.615670
   H      1.104068     -0.842001      3.204720
