    8
 0011.xyz Energy 0.125394
   O      0.066594      0.772911     -0.862315
   O      0.215705     -0.903351      0.694876
   C     -0.276237      0.127633      0.163848
   H     -1.189425      0.549641      0.705421
   O     -1.130308      0.259070      3.786477
   O      1.102932     -0.105397      3.416699
   C      0.026794     -0.150374      4.070020
   H      0.115265     -0.647465      5.094901
