    8
 0012.xyz Energy 0.108595
   O      0.506842      0.899192      0.529130
   O     -0.346723     -0.755316     -0.809138
   C     -0.156682     -0.140792      0.273992
   H     -0.674602     -0.606142      1.179814
   O      1.002084      0.581830      4.492093
   O     -0.924193     -0.577951      4.043435
   C     -0.076224     -0.003799      4.777073
   H     -0.328117     -0.016305      5.891389
