    8
 0013.xyz Energy 0.102707
   O     -0.761395     -0.494894     -0.721644
   O      0.977843      0.432557      0.449601
   C     -0.211795      0.061001      0.266205
   H     -0.912025      0.262613      1.146168
   O      0.742983     -0.828467      4.707157
   O     -0.451513      1.025876      4.081439
   C     -0.285215     -0.193164      4.352016
   H     -1.228020     -0.831812      4.259538
