    8
 0015.xyz Energy 0.132134
   O      1.106596     -0.155035     -0.311165
   O     -1.122963     -0.186503      0.222699
   C      0.016009      0.334204      0.086568
   H      0.069037      1.439018      0.372719
   O      0.760837      0.355660      2.459970
   O     -0.731224     -0.018277      4.160223
   C     -0.028981     -0.330139      3.161963
   H     -0.124716     -1.421494      2.837794
