    8
 0016.xyz Energy 0.114923
   O     -0.146002      0.405710      1.076799
   O      0.475847     -0.448553     -0.958016
   C     -0.322760      0.041920     -0.116239
   H     -1.389769      0.180540     -0.500405
   O      0.125113     -0.506010      3.903798
   O     -0.325570      0.724993      5.784875
   C      0.196151     -0.214278      5.127224
   H      0.844606     -0.922693      5.746061
