    8
 0017.xyz Energy 0.100703
   O     -1.127275     -0.019052      0.272585
   O      1.000783      0.189311     -0.554994
   C      0.123781     -0.166602      0.276342
   H      0.532877     -0.717365      1.189910
   O      0.099934     -0.946981      4.017690
   O     -0.410697      0.965031      5.175446
   C      0.304088     -0.017657      4.843284
   H      1.309365     -0.076118      5.383013
