    8
 0020.xyz Energy 0.103205
   O     -0.173380      0.827517      0.794084
   O      0.334666     -0.560078     -0.959028
   C     -0.157821     -0.261699      0.161397
   H     -0.679568     -1.126758      0.695025
   O      0.952007      0.611137      4.143859
   O     -0.818910     -0.579930      4.981800
   C     -0.130244     -0.030541      4.081336
   H     -0.560719     -0.131447      3.027858
