    8
 0022.xyz Energy 0.109408
   O     -0.791449     -0.655776     -0.537569
   O      0.926100      0.337701      0.611328
   C     -0.131754      0.311248     -0.072171
   H     -0.567387      1.340122     -0.310809
   O     -0.022337     -0.395626      5.910135
   O      0.356013      0.282133      3.752723
   C     -0.326510      0.111058      4.797626
   H     -1.405901      0.478161      4.723764
