    8
 0024.xyz Energy 0.10552
   O      0.343624     -0.111242      1.102253
   O     -0.510202     -0.190250     -1.024169
   C      0.162999      0.295018     -0.076413
   H      0.701879      1.270289     -0.328920
   O     -0.977107      0.489756      5.108349
   O      0.830217     -0.774030      4.481166
   C      0.143741      0.278165      4.573694
   H      0.618833      1.197783      4.090064
