    8
 0025.xyz Energy 0.148979
   O     -0.863016     -0.702956     -0.326296
   O      0.633210      0.947496      0.216150
   C      0.224876     -0.239284      0.107782
   H      0.968201     -1.030384      0.464061
   O     -0.132558     -1.123051      2.661934
   O      0.310185      1.116686      2.872859
   C     -0.173811      0.006235      3.218653
   H     -0.748415      0.026743      4.205931
