    8
 0030.xyz Energy 0.124939
   O      0.260966      0.873617     -0.717010
   O     -0.058995     -1.050749      0.487719
   C     -0.197635      0.173323      0.224371
   H     -0.850960      0.746384      0.966041
   O     -0.546048      1.021779      3.396675
   O      0.237875     -1.132761      3.415442
   C      0.301558      0.108593      3.210720
   H      1.298411      0.467679      2.783347
