    8
 0032.xyz Energy 0.105268
   O      0.005841     -0.158449     -1.149031
   O      0.157481     -0.154541      1.138745
   C     -0.159814      0.306269      0.010072
   H     -0.688134      1.318733      0.043261
   O      0.560833     -0.511772      4.303091
   O     -0.425689      0.236843      6.232672
   C     -0.132245      0.269028      5.008017
   H     -0.569374      1.158343      4.439385
