    8
 0033.xyz Energy 0.0973765
   O      0.462925      0.770360      0.733253
   O     -0.147431     -0.732281     -0.887385
   C     -0.308721     -0.037265      0.150817
   H     -1.329260     -0.160385      0.649464
   O      0.554117      0.412789      5.771651
   O     -0.720279     -0.600377      4.157234
   C      0.162590      0.183557      4.596455
   H      0.700139      0.790407      3.791421
