    8
 0036.xyz Energy 0.131048
   O     -0.807789     -0.525053      0.645917
   O      0.536422      0.546985     -0.870909
   C      0.265544     -0.021458      0.220156
   H      1.143317     -0.092445      0.948018
   O      0.520906     -0.010096      4.976324
   O     -0.773344     -0.153049      3.089154
   C      0.247013      0.159641      3.758499
   H      1.063647      0.687387      3.158584
