    8
 0037.xyz Energy 0.115812
   O     -0.517008     -0.589942     -0.854450
   O      0.805517      0.472572      0.687926
   C     -0.282309      0.114852      0.162952
   H     -1.215627      0.494481      0.701567
   O      0.108061     -1.072591      3.411881
   O     -0.449291      1.004032      4.208078
   C      0.333901      0.067092      3.898754
   H      1.437733      0.288789      4.092944
