    8
 0038.xyz Energy 0.104585
   O      0.490668      0.835123      0.638145
   O     -0.507579     -0.571429     -0.872500
   C      0.016545     -0.258035      0.229318
   H      0.071287     -1.110982      0.987469
   O     -0.371552     -0.866342      5.655880
   O      0.215841      0.668125      4.056720
   C      0.152369      0.193965      5.222083
   H      0.656043      0.835103      6.022433
