    8
 0039.xyz Energy 0.0964936
   O      0.142152     -0.235893     -1.126748
   O      0.186811      0.107989      1.139677
   C     -0.321898      0.125158     -0.012645
   H     -1.386030      0.538888     -0.054552
   O      0.119408     -0.260791      6.923896
   O     -0.440192      0.124878      4.734139
   C      0.313894      0.132996      5.743205
   H      1.351589      0.572635      5.555555
