    8
 0040.xyz Energy 0.124823
   O      0.159000      0.017000      1.149000
   O      0.183000      0.072000     -1.143000
   C     -0.334000     -0.087000     -0.006000
   H     -1.440000     -0.376000     -0.024000
   O     -0.303600     -0.849700      3.849900
   O      0.582400      1.092300      4.686900
   C     -0.120600      0.047300      4.715900
   H     -0.688600     -0.114700      5.693900
