    8
 0041.xyz Energy 0.157381
   O      0.159000      0.017000      1.149000
   O      0.183000      0.072000     -1.143000
   C     -0.334000     -0.087000     -0.006000
   H     -1.440000     -0.376000     -0.024000
   O     -0.200800     -0.657100      3.249700
   O      0.685200      1.284900      4.086700
   C     -0.017800      0.239900      4.115700
   H     -0.585800      0.077900      5.093700
