   12
 0000.xyz Energy 0.134229
   N      0.923753      0.117356      0.829360
   C     -0.039112      0.504656     -0.261001
   H      1.542898      0.910015      1.068904
   H      1.515792     -0.675443      0.529896
   H      0.414618     -0.164056      1.683951
   H      0.563666      0.820076     -1.118170
   H     -0.606993      1.363521      0.109702
   C     -1.010210     -0.608258     -0.694314
   H     -0.462642     -1.473016     -1.077018
   H     -1.671538     -0.245604     -1.485129
   H     -1.628809     -0.931804      0.146380
  Li      0.000000      0.000000      4.380000
