   12
 0001.xyz Energy 0.0944771
   N     -0.495232      0.230507     -1.120956
   C     -0.132103      0.449796      0.323360
   H     -1.041560      1.028881     -1.485858
   H     -1.063973     -0.625969     -1.229130
   H      0.354834      0.129480     -1.700542
   H     -1.071382      0.580129      0.869563
   H      0.437396      1.383221      0.367491
   C      0.685710     -0.684857      0.966099
   H      0.130104     -1.625469      0.940588
   H      0.906477     -0.446926      2.009608
   H      1.633208     -0.825560      0.440209
  Li      0.000000      0.000000      4.820000
