   12
 0002.xyz Energy 0.0905732
   N     -0.487068      0.418390     -1.068946
   C      0.451767     -0.313703     -0.147736
   H     -0.209599      0.284099     -2.055863
   H     -0.480904      1.432274     -0.867155
   H     -1.454549      0.072091     -0.955827
   H      1.455121      0.077438     -0.342306
   H      0.419080     -1.368631     -0.436907
   C      0.126685     -0.178804      1.350760
   H      0.163151      0.867899      1.662503
   H      0.852475     -0.737942      1.946458
   H     -0.869188     -0.572569      1.568241
  Li      0.000000      0.000000      4.980000
