   12
 0003.xyz Energy 0.124523
   N     -0.322172      0.469623      1.109320
   C     -0.246829      0.335776     -0.388147
   H     -0.903115      1.282629      1.374941
   H      0.620551      0.601153      1.512669
   H     -0.739334     -0.376751      1.531652
   H      0.170972      1.272770     -0.769008
   H     -1.275138      0.232688     -0.748027
   C      0.597641     -0.848487     -0.891890
   H      1.631960     -0.759749     -0.550701
   H      0.599462     -0.873300     -1.984430
   H      0.191374     -1.796003     -0.529576
  Li      0.000000      0.000000      4.920000
