   12
 0004.xyz Energy 0.109109
   N      1.027892      0.274997      0.650189
   C     -0.431537      0.035129      0.369960
   H      1.173323      0.524766      1.642909
   H      1.390204      1.047628      0.066674
   H      1.583644     -0.572453      0.445965
   H     -0.960442      0.955220      0.636910
   H     -0.753925     -0.767611      1.040210
   C     -0.758737     -0.344753     -1.085374
   H     -0.452676      0.448984     -1.771237
   H     -1.833982     -0.501142     -1.202222
   H     -0.246704     -1.267344     -1.369554
  Li      0.000000      0.000000      5.140000
