   12
 0006.xyz Energy 0.0814042
   N      0.694100      0.866620     -0.567561
   C     -0.532070      0.081108     -0.186149
   H      0.455115      1.612625     -1.242388
   H      1.401472      0.251623     -1.003593
   H      1.118936      1.308565      0.264867
   H     -0.945882     -0.329178     -1.112429
   H     -1.245598      0.795129      0.236478
   C     -0.285708     -1.058703      0.818591
   H      0.418152     -1.788742      0.411499
   H     -1.222762     -1.575148      1.041025
   H      0.119815     -0.668647      1.755351
  Li      0.000000      0.000000      5.940000
