   12
 0008.xyz Energy 0.113373
   N      1.075676      0.589650     -0.223975
   C     -0.032870     -0.052956      0.566078
   H      1.814523      0.945606      0.405652
   H      0.715857      1.383264     -0.780235
   H      1.504965     -0.091437     -0.872488
   H     -0.417525      0.709955      1.249874
   H      0.422133     -0.858063      1.151173
   C     -1.188330     -0.618464     -0.279191
   H     -1.663038      0.172415     -0.865077
   H     -1.946538     -1.065412      0.368590
   H     -0.826461     -1.389629     -0.963637
  Li      0.000000      0.000000      4.120000
