   12
 0009.xyz Energy 0.097132
   N     -0.690574      0.297931     -0.994624
   C     -0.293101      0.182945      0.452716
   H     -1.605018      0.771694     -1.086104
   H     -0.766935     -0.637353     -1.428366
   H      0.009901      0.843632     -1.524041
   H     -1.089121     -0.374206      0.956209
   H     -0.262996      1.200737      0.853656
   C      1.058749     -0.510007      0.701082
   H      1.046643     -1.532511      0.315803
   H      1.270758     -0.551300      1.772347
   H      1.869715      0.036444      0.213397
  Li      0.000000      0.000000      4.700000
