   12
 0013.xyz Energy 0.10447
   N      0.050496      0.520393      1.132066
   C     -0.106366      0.426483     -0.362114
   H     -0.061770      1.497561      1.450763
   H      0.986468      0.191665      1.422949
   H     -0.659030     -0.058843      1.611438
   H      0.649654      1.084360     -0.801662
   H     -1.100172      0.817784     -0.600431
   C      0.042961     -0.991466     -0.942190
   H      1.033485     -1.397524     -0.722923
   H     -0.085090     -0.970988     -2.027292
   H     -0.709698     -1.663220     -0.522235
  Li      0.000000      0.000000      5.800000
