   12
 0014.xyz Energy 0.0998278
   N      0.003651      0.563223     -1.112518
   C     -0.030251      0.418172      0.385417
   H     -0.035970      1.560016     -1.384295
   H     -0.800500      0.078618     -1.545204
   H      0.872117      0.157524     -1.499704
   H     -0.953874      0.894284      0.728649
   H      0.824935      0.978055      0.776245
   C      0.024314     -1.032194      0.898086
   H     -0.827393     -1.606971      0.526164
   H     -0.004032     -1.047927      1.990428
   H      0.944720     -1.523636      0.573358
  Li      0.000000      0.000000      4.500000
