   12
 0016.xyz Energy 0.127951
   N      1.086640     -0.410726      0.453265
   C      0.032530     -0.066312     -0.564689
   H      1.925099     -0.803218     -0.007132
   H      0.730697     -1.110312      1.126022
   H      1.372854      0.430112      0.982237
   H     -0.198190     -0.989012     -1.105950
   H      0.485136      0.649078     -1.258176
   C     -1.262340      0.527966      0.017990
   H     -1.735748     -0.175577      0.707200
   H     -1.970751      0.749084     -0.784208
   H     -1.054937      1.456332      0.555793
  Li      0.000000      0.000000      4.080000
