   12
 0017.xyz Energy 0.117795
   N      0.682372      0.968222      0.389673
   C      0.360197     -0.439789     -0.034245
   H      1.684895      1.058567      0.625925
   H      0.129544      1.235343      1.221386
   H      0.468231      1.636744     -0.369247
   H      0.639694     -1.092741      0.798284
   H      0.999834     -0.665081     -0.893121
   C     -1.112659     -0.683335     -0.409410
   H     -1.768546     -0.472693      0.438848
   H     -1.259907     -1.725251     -0.704352
   H     -1.409854     -0.046412     -1.246139
  Li      0.000000      0.000000      4.480000
