   12
 0018.xyz Energy 0.0977184
   N      0.396294     -1.181834      0.033925
   C     -0.334740      0.064468      0.456204
   H      0.216411     -1.953850      0.697749
   H      1.415985     -1.014701      0.002077
   H      0.088971     -1.485661     -0.905213
   H      0.013129      0.309116      1.464522
   H     -1.397656     -0.192272      0.499254
   C     -0.133949      1.278896     -0.468034
   H      0.921440      1.557808     -0.517652
   H     -0.696513      2.136918     -0.091762
   H     -0.483870      1.058206     -1.479450
  Li      0.000000      0.000000      5.180000
