   12
 0019.xyz Energy 0.108289
   N     -0.340588      0.686086      0.983980
   C     -0.229799      0.255444     -0.454169
   H     -0.911111      1.544492      1.065664
   H      0.594049      0.880922      1.380478
   H     -0.785903     -0.052705      1.553735
   H      0.216979      1.091279     -1.001288
   H     -1.250495      0.098445     -0.816233
   C      0.602479     -1.018199     -0.687651
   H      1.629361     -0.879076     -0.340869
   H      0.631704     -1.260208     -1.752939
   H      0.167485     -1.868216     -0.156273
  Li      0.000000      0.000000      5.460000
