   12
 0020.xyz Energy 0.0862076
   N     -0.287952      0.962123     -0.739144
   C      0.323644      0.215536      0.416086
   H     -0.044562      1.966061     -0.695582
   H     -1.318279      0.878966     -0.724012
   H      0.053576      0.586122     -1.639544
   H     -0.053493      0.683544      1.330584
   H      1.405034      0.372311      0.356274
   C      0.021593     -1.293516      0.446009
   H     -1.054252     -1.472080      0.515086
   H      0.500957     -1.757499      1.311567
   H      0.398631     -1.782156     -0.455758
  Li      0.000000      0.000000      5.520000
