   12
 0021.xyz Energy 0.107769
   N      1.185606      0.102112     -0.372615
   C     -0.281916      0.418993     -0.263242
   H      1.655730      0.763667     -1.013206
   H      1.326966     -0.855085     -0.736633
   H      1.643775      0.167412      0.551806
   H     -0.693998      0.363345     -1.275498
   H     -0.356351      1.450411      0.094803
   C     -1.078402     -0.510322      0.670219
   H     -1.024559     -1.545554      0.324536
   H     -2.129523     -0.212174      0.692881
   H     -0.687997     -0.462739      1.689744
  Li      0.000000      0.000000      4.280000
