   12
 0022.xyz Energy 0.102742
   N      0.786030     -0.041802     -0.967130
   C      0.235607      0.356990      0.376000
   H      1.689666      0.427754     -1.145981
   H      0.131243      0.219909     -1.723094
   H      0.938966     -1.063279     -1.011086
   H      0.129733      1.446125      0.363922
   H      0.988832      0.081157      1.120398
   C     -1.112839     -0.288763      0.742144
   H     -1.882348     -0.017824      0.015132
   H     -1.439368      0.051829      1.727861
   H     -1.026525     -1.377783      0.768546
  Li      0.000000      0.000000      4.340000
