   12
 0023.xyz Energy 0.0973378
   N     -0.344458     -0.687174     -0.981871
   C     -0.449281      0.006651      0.349901
   H     -1.225244     -1.179164     -1.208125
   H      0.420408     -1.382599     -0.972787
   H     -0.152876     -0.005671     -1.735255
   H     -0.683547     -0.764023      1.090679
   H     -1.292958      0.700017      0.279108
   C      0.813531      0.772613      0.783460
   H      1.667030      0.095653      0.869277
   H      0.653422      1.245119      1.755758
   H      1.060064      1.554123      0.060566
  Li      0.000000      0.000000      4.660000
