   12
 0026.xyz Energy 0.10484
   N      0.979639      0.087673      0.766519
   C      0.209685     -0.172847     -0.500485
   H      1.988190     -0.090418      0.624614
   H      0.647724     -0.526417      1.529044
   H      0.864821      1.069555      1.068949
   H      0.401080     -1.213760     -0.778762
   H      0.632167      0.483700     -1.267306
   C     -1.307871      0.063358     -0.397534
   H     -1.751441     -0.590259      0.357536
   H     -1.788670     -0.146928     -1.356113
   H     -1.521238      1.100871     -0.128923
  Li      0.000000      0.000000      5.420000
