   12
 0027.xyz Energy 0.0772094
   N      0.529446      0.193215     -1.112333
   C      0.082030     -0.551253      0.117132
   H      1.030587     -0.438113     -1.759877
   H      1.165938      0.967633     -0.859600
   H     -0.281805      0.592051     -1.613870
   H      0.981514     -0.971411      0.577529
   H     -0.557978     -1.370265     -0.225170
   C     -0.677338      0.300106      1.150532
   H     -0.051514      1.119474      1.512583
   H     -0.965190     -0.313999      2.007432
   H     -1.585196      0.722347      0.712791
  Li      0.000000      0.000000      6.120000
