   12
 0028.xyz Energy 0.106625
   N      0.519134      0.549944     -0.991460
   C      0.007558      0.389744      0.415176
   H      0.908587      1.497187     -1.133190
   H     -0.242527      0.408498     -1.675991
   H      1.264422     -0.138374     -1.190212
   H     -0.749820      1.164979      0.566693
   H      0.852980      0.583273      1.082536
   C     -0.595581     -0.990359      0.732834
   H     -1.448515     -1.199488      0.082551
   H     -0.940559     -1.022223      1.769288
   H      0.148274     -1.779111      0.596223
  Li      0.000000      0.000000      4.120000
