   12
 0029.xyz Energy 0.133554
   N     -0.797077      0.297029      0.911796
   C      0.147899     -0.541909      0.093750
   H     -1.171378     -0.245411      1.708468
   H     -1.594117      0.616729      0.336263
   H     -0.314551      1.130612      1.287357
   H     -0.416276     -1.417165     -0.242709
   H      0.944053     -0.870064      0.769038
   C      0.764177      0.173616     -1.121813
   H     -0.014830      0.501708     -1.814346
   H      1.434935     -0.502393     -1.657870
   H      1.340258      1.046972     -0.806388
  Li      0.000000      0.000000      4.440000
