   12
 0030.xyz Energy 0.120999
   N      1.035583      0.131825      0.681997
   C      0.167252     -0.231347     -0.492782
   H      2.025507     -0.096012      0.489202
   H      0.743656     -0.387370      1.526944
   H      0.971070      1.143309      0.885654
   H      0.308224     -1.301731     -0.671598
   H      0.550342      0.326360     -1.352878
   C     -1.331325      0.068402     -0.308979
   H     -1.736221     -0.486860      0.540634
   H     -1.887242     -0.223104     -1.203542
   H     -1.495008      1.135188     -0.137843
  Li      0.000000      0.000000      4.640000
