   12
 0031.xyz Energy 0.117237
   N      1.058630     -0.322972      0.574388
   C     -0.283020      0.328176      0.369498
   H      1.434502     -0.098939      1.511169
   H      1.736946      0.006609     -0.132706
   H      0.982292     -1.350867      0.494749
   H     -0.135357      1.404757      0.498884
   H     -0.937232     -0.039302      1.166069
   C     -0.933415      0.057074     -0.999025
   H     -0.299343      0.425406     -1.809200
   H     -1.899770      0.563137     -1.064764
   H     -1.098014     -1.013354     -1.144632
  Li      0.000000      0.000000      4.680000
