   12
 0033.xyz Energy 0.102901
   N     -0.357545      0.106007      1.189897
   C      0.538673      0.184037     -0.017042
   H      0.136205      0.441270      2.034194
   H     -0.660048     -0.868052      1.358476
   H     -1.201411      0.688239      1.057097
   H      1.420739     -0.424839      0.203865
   H      0.844393      1.230112     -0.116147
   C     -0.101974     -0.293494     -1.332680
   H     -0.406444     -1.340298     -1.257850
   H      0.612242     -0.203605     -2.154919
   H     -0.980845      0.308350     -1.576568
  Li      0.000000      0.000000      6.000000
