   14
 0000.xyz Energy 0.089699
   C     -1.864000     -0.383000      0.652000
   C     -3.310000     -0.490000      1.074000
   O     -4.032000     -1.197000      0.242000
   O     -3.814000      0.215000      1.926000
   H     -1.779000      0.174000     -0.284000
   H     -1.277000      0.128000      1.418000
   H     -1.437000     -1.376000      0.497000
   C      3.402600     -0.565100      0.317000
   C      1.906600     -0.480100      0.505000
   O      1.282600      0.212900     -0.273000
   O      1.418600     -1.124100      1.410000
   H      3.787600      0.364900     -0.109000
   H      3.898600     -0.739100      1.274000
   H      3.645600     -1.387100     -0.359000
