   14
 0001.xyz Energy 0.087209
   C     -1.864000     -0.383000      0.652000
   C     -3.310000     -0.490000      1.074000
   O     -4.032000     -1.197000      0.242000
   O     -3.814000      0.215000      1.926000
   H     -1.779000      0.174000     -0.284000
   H     -1.277000      0.128000      1.418000
   H     -1.437000     -1.376000      0.497000
   C      3.593884     -0.548226      0.378158
   C      2.097884     -0.463226      0.566158
   O      1.473884      0.229774     -0.211842
   O      1.609884     -1.107226      1.471158
   H      3.978884      0.381774     -0.047842
   H      4.089884     -0.722226      1.335158
   H      3.836884     -1.370226     -0.297842
