   14
 0002.xyz Energy 0.0857692
   C     -1.864000     -0.383000      0.652000
   C     -3.310000     -0.490000      1.074000
   O     -4.032000     -1.197000      0.242000
   O     -3.814000      0.215000      1.926000
   H     -1.779000      0.174000     -0.284000
   H     -1.277000      0.128000      1.418000
   H     -1.437000     -1.376000      0.497000
   C      3.716853     -0.537379      0.417474
   C      2.220853     -0.452379      0.605474
   O      1.596853      0.240621     -0.172526
   O      1.732853     -1.096379      1.510474
   H      4.101853      0.392621     -0.008526
   H      4.212853     -0.711379      1.374474
   H      3.959853     -1.359379     -0.258526
