   14
 0003.xyz Energy 0.0851558
   C     -1.864000     -0.383000      0.652000
   C     -3.310000     -0.490000      1.074000
   O     -4.032000     -1.197000      0.242000
   O     -3.814000      0.215000      1.926000
   H     -1.779000      0.174000     -0.284000
   H     -1.277000      0.128000      1.418000
   H     -1.437000     -1.376000      0.497000
   C      3.771505     -0.532558      0.434947
   C      2.275505     -0.447558      0.622947
   O      1.651505      0.245442     -0.155053
   O      1.787505     -1.091558      1.527947
   H      4.156505      0.397442      0.008947
   H      4.267505     -0.706558      1.391947
   H      4.014505     -1.354558     -0.241053
