   14
 0004.xyz Energy 0.0853079
   C     -1.864000     -0.383000      0.652000
   C     -3.310000     -0.490000      1.074000
   O     -4.032000     -1.197000      0.242000
   O     -3.814000      0.215000      1.926000
   H     -1.779000      0.174000     -0.284000
   H     -1.277000      0.128000      1.418000
   H     -1.437000     -1.376000      0.497000
   C      3.757842     -0.533763      0.430579
   C      2.261842     -0.448763      0.618579
   O      1.637842      0.244237     -0.159421
   O      1.773842     -1.092763      1.523579
   H      4.142842      0.396237      0.004579
   H      4.253842     -0.707763      1.387579
   H      4.000842     -1.355763     -0.245421
