   14
 0005.xyz Energy 0.086239
   C     -1.864000     -0.383000      0.652000
   C     -3.310000     -0.490000      1.074000
   O     -4.032000     -1.197000      0.242000
   O     -3.814000      0.215000      1.926000
   H     -1.779000      0.174000     -0.284000
   H     -1.277000      0.128000      1.418000
   H     -1.437000     -1.376000      0.497000
   C      3.675863     -0.540995      0.404368
   C      2.179863     -0.455995      0.592368
   O      1.555863      0.237005     -0.185632
   O      1.691863     -1.099995      1.497368
   H      4.060863      0.389005     -0.021632
   H      4.171863     -0.714995      1.361368
   H      3.918863     -1.362995     -0.271632
