   14
 0007.xyz Energy 0.0911235
   C     -1.864000     -0.383000      0.652000
   C     -3.310000     -0.490000      1.074000
   O     -4.032000     -1.197000      0.242000
   O     -3.814000      0.215000      1.926000
   H     -1.779000      0.174000     -0.284000
   H     -1.277000      0.128000      1.418000
   H     -1.437000     -1.376000      0.497000
   C      3.306958     -0.573537      0.286421
   C      1.810958     -0.488537      0.474421
   O      1.186958      0.204463     -0.303579
   O      1.322958     -1.132537      1.379421
   H      3.691958      0.356463     -0.139579
   H      3.802958     -0.747537      1.243421
   H      3.549958     -1.395537     -0.389579
