   14
 0009.xyz Energy 0.110568
   C     -1.864000     -0.383000      0.652000
   C     -3.310000     -0.490000      1.074000
   O     -4.032000     -1.197000      0.242000
   O     -3.814000      0.215000      1.926000
   H     -1.779000      0.174000     -0.284000
   H     -1.277000      0.128000      1.418000
   H     -1.437000     -1.376000      0.497000
   C      2.664789     -0.630184      0.081105
   C      1.168789     -0.545184      0.269105
   O      0.544789      0.147816     -0.508895
   O      0.680789     -1.189184      1.174105
   H      3.049789      0.299816     -0.344895
   H      3.160789     -0.804184      1.038105
   H      2.907789     -1.452184     -0.594895
