   14
 0010.xyz Energy 0.157098
   C     -1.864000     -0.383000      0.652000
   C     -3.310000     -0.490000      1.074000
   O     -4.032000     -1.197000      0.242000
   O     -3.814000      0.215000      1.926000
   H     -1.779000      0.174000     -0.284000
   H     -1.277000      0.128000      1.418000
   H     -1.437000     -1.376000      0.497000
   C      2.241232     -0.667547     -0.054316
   C      0.745232     -0.582547      0.133684
   O      0.121232      0.110453     -0.644316
   O      0.257232     -1.226547      1.038684
   H      2.626232      0.262453     -0.480316
   H      2.737232     -0.841547      0.902684
   H      2.484232     -1.489547     -0.730316
