   14
 0011.xyz Energy 0.344212
   C     -1.864000     -0.383000      0.652000
   C     -3.310000     -0.490000      1.074000
   O     -4.032000     -1.197000      0.242000
   O     -3.814000      0.215000      1.926000
   H     -1.779000      0.174000     -0.284000
   H     -1.277000      0.128000      1.418000
   H     -1.437000     -1.376000      0.497000
   C      1.749358     -0.710937     -0.211579
   C      0.253358     -0.625937     -0.023579
   O     -0.370642      0.067063     -0.801579
   O     -0.234642     -1.269937      0.881421
   H      2.134358      0.219063     -0.637579
   H      2.245358     -0.884937      0.745421
   H      1.992358     -1.532937     -0.887579
