   14
 0015.xyz Energy 0.971198
   C     -1.864000     -0.383000      0.652000
   C     -3.310000     -0.490000      1.074000
   O     -4.032000     -1.197000      0.242000
   O     -3.814000      0.215000      1.926000
   H     -1.779000      0.174000     -0.284000
   H     -1.277000      0.128000      1.418000
   H     -1.437000     -1.376000      0.497000
   C     -0.901295     -0.944758     -1.059053
   C     -2.397295     -0.859758     -0.871053
   O     -3.021295     -0.166758     -1.649053
   O     -2.885295     -1.503758      0.033947
   H     -0.516295     -0.014758     -1.485053
   H     -0.405295     -1.118758     -0.102053
   H     -0.658295     -1.766758     -1.735053
