   14
 0017.xyz Energy 0.725876
   C     -1.864000     -0.383000      0.652000
   C     -3.310000     -0.490000      1.074000
   O     -4.032000     -1.197000      0.242000
   O     -3.814000      0.215000      1.926000
   H     -1.779000      0.174000     -0.284000
   H     -1.277000      0.128000      1.418000
   H     -1.437000     -1.376000      0.497000
   C     -2.636516     -1.097826     -1.613842
   C     -4.132516     -1.012826     -1.425842
   O     -4.756516     -0.319826     -2.203842
   O     -4.620516     -1.656826     -0.520842
   H     -2.251516     -0.167826     -2.039842
   H     -2.140516     -1.271826     -0.656842
   H     -2.393516     -1.919826     -2.289842
