   14
 0024.xyz Energy 0.122825
   C     -0.635947      0.569033     -1.178387
   C      0.045691     -0.042053      0.096049
   O     -0.431345      0.326182      1.237828
   O      1.022824     -0.855052     -0.143115
   H     -1.463037      1.234674     -0.902833
   H      0.114567      1.126195     -1.758719
   H     -1.006841     -0.245371     -1.818174
   C     -1.403329     -0.167398      5.025643
   C      0.109510      0.009144      4.648293
   O      0.568403     -0.768935      3.725889
   O      0.735771      0.924724      5.313475
   H     -1.874256     -0.946879      4.414313
   H     -1.482732     -0.429439      6.091248
   H     -1.927600      0.789154      4.883189
