   14
 0026.xyz Energy 0.107477
   C     -0.986630     -1.029623     -0.288549
   C      0.074180      0.082600      0.027496
   O     -0.215022      0.900324      0.983796
   O      1.132075      0.056427     -0.716232
   H     -1.847346     -0.957675      0.387527
   H     -1.321054     -0.925421     -1.331520
   H     -0.515628     -2.019103     -0.192470
   C      0.668648      1.154240      5.740915
   C     -0.050178     -0.089190      5.108924
   O      0.024346     -0.207721      3.825485
   O     -0.646076     -0.864898      5.955174
   H      1.164015      1.757593      4.970419
   H     -0.071556      1.767018      6.276718
   H      1.406837      0.810406      6.480509
