   14
 0027.xyz Energy 0.103435
   C      1.284693     -0.675785      0.098503
   C     -0.101138      0.053385     -0.001640
   O     -0.717900      0.275010      1.110703
   O     -0.475985      0.352767     -1.202813
   H      1.546068     -0.884983      1.143016
   H      1.241395     -1.615970     -0.471288
   H      2.060350     -0.047514     -0.363855
   C      0.811856     -1.206981      5.430162
   C     -0.063081      0.095335      5.403678
   O     -0.360326      0.613776      6.548092
   O     -0.394327      0.507666      4.223333
   H      1.067827     -1.489684      6.458580
   H      0.258943     -2.024845      4.944495
   H      1.729776     -1.040222      4.847274
