   14
 0028.xyz Energy 0.102249
   C      1.307638      0.614617      0.170742
   C     -0.101853     -0.048258     -0.019460
   O     -0.517139     -0.181729     -1.234590
   O     -0.698162     -0.389233      1.076491
   H      1.760636      0.863355     -0.796734
   H      1.200565      1.525554      0.778372
   H      1.961663     -0.074507      0.725273
   C     -1.117546      0.914963      5.535374
   C      0.088650     -0.071853      5.352272
   O      0.777923     -0.342601      6.409825
   O      0.260609     -0.507487      4.146614
   H     -1.213498      1.231259      6.581241
   H     -0.967213      1.794287      4.891422
   H     -2.044033      0.421766      5.205947
