   14
 0029.xyz Energy 0.106157
   C      1.084294     -0.823347     -0.513060
   C     -0.083330      0.069230      0.036672
   O     -0.100237      1.300296     -0.351930
   O     -0.907411     -0.535559      0.829184
   H      1.733404     -0.252353     -1.188122
   H      1.672716     -1.210939      0.331936
   H      0.661233     -1.689657     -1.042843
   C     -0.330621      1.257596      5.992660
   C      0.026694     -0.101359      5.294226
   O      0.413834     -1.061767      6.065302
   O     -0.106479     -0.106571      4.007683
   H     -0.210279      1.185892      7.080531
   H      0.320547      2.050885      5.596229
   H     -1.367449      1.531056      5.746995
