   14
 0030.xyz Energy 0.0988769
   C      0.206733     -1.418414      0.249370
   C     -0.019407      0.109995     -0.024614
   O     -0.597171      0.417075     -1.137588
   O      0.405530      0.901142      0.906231
   H     -0.189987     -2.029347     -0.570669
   H      1.283475     -1.609351      0.370426
   H     -0.283650     -1.694817      1.194499
   C      1.361122     -0.511476      5.149370
   C     -0.107176      0.039878      5.197881
   O     -0.662029      0.303471      4.062329
   O     -0.602714      0.172036      6.385287
   H      1.710891     -0.612327      4.114683
   H      2.023003      0.171408      5.702603
   H      1.399911     -1.487451      5.655445
