   14
 0031.xyz Energy 0.109822
   C     -1.032809      1.009512     -0.176107
   C      0.080827     -0.080540      0.007859
   O      0.354868     -0.805060     -1.024997
   O      0.604771     -0.133057      1.189249
   H     -1.420739      1.008236     -1.202068
   H     -1.851164      0.814649      0.532983
   H     -0.617048      1.998624      0.066677
   C     -0.686999     -1.282123      4.311877
   C      0.059294      0.097785      4.278087
   O      1.331239      0.071056      4.497772
   O     -0.693360      1.120661      4.032746
   H      0.011928     -2.104138      4.509053
   H     -1.462311     -1.255686      5.092055
   H     -1.195229     -1.444258      3.349817
