   14
 0033.xyz Energy 0.0958892
   C      0.625643     -1.095891     -0.724166
   C     -0.052177      0.087609      0.051805
   O     -0.784277      0.890288     -0.645731
   O      0.203328      0.128054      1.319100
   H      0.354485     -1.077786     -1.786819
   H      1.718007     -1.021525     -0.616013
   H      0.315749     -2.050591     -0.273991
   C     -1.450177     -0.117514      6.080520
   C      0.113891      0.008592      6.086035
   O      0.684555      0.056153      7.243144
   O      0.663023      0.053305      4.915816
   H     -1.845915     -0.165391      7.102374
   H     -1.881433      0.746302      5.552955
   H     -1.740172     -1.020456      5.523077
