   14
 0037.xyz Energy 0.114025
   C     -0.985859      0.848465     -0.651930
   C      0.080806     -0.061691      0.052402
   O      1.170458      0.516235      0.433822
   O     -0.254565     -1.305174      0.171705
   H     -0.643381      1.889118     -0.705194
   H     -1.176276      0.465470     -1.665607
   H     -1.934119      0.793385     -0.097031
   C     -1.127250      0.841556      4.028632
   C      0.089468     -0.067349      4.423262
   O      0.642899     -0.736835      3.468106
   O      0.404402     -0.045226      5.677567
   H     -1.328383      0.786206      2.951799
   H     -2.016478      0.521137      4.591741
   H     -0.913188      1.881215      4.317474
