   14
 0039.xyz Energy 0.0979472
   C     -0.919402      0.925371     -0.644369
   C      0.076149     -0.068086      0.051451
   O      1.238120      0.402033      0.360693
   O     -0.384048     -1.262420      0.237840
   H     -0.470676      1.919933     -0.756523
   H     -1.197438      0.527449     -1.631709
   H     -1.840760      0.994512     -0.047325
   C     -1.440095      0.206976      5.529486
   C      0.112953     -0.016590      5.546924
   O      0.678912     -0.042290      6.707031
   O      0.659355     -0.149818      4.382170
   H     -1.837499      0.296143      6.547919
   H     -1.668428      1.119082      4.958161
   H     -1.922744     -0.634444      5.010636
