   14
 0042.xyz Energy 0.136745
   C     -0.273006      1.316850     -0.555154
   C      0.018877     -0.105969      0.038675
   O     -0.463037     -1.112076     -0.611192
   O      0.716800     -0.111378      1.127634
   H     -0.853838      1.245807     -1.482879
   H     -0.825315      1.912727      0.186716
   H      0.679267      1.833033     -0.747181
   C     -0.446092      0.096312      5.741502
   C      0.029541     -0.005637      4.249650
   O     -0.865797      0.203533      3.343318
   O      1.280793     -0.293402      4.093073
   H     -1.509856      0.357290      5.799682
   H     -0.269451     -0.866044      6.244648
   H      0.155523      0.854802      6.263895
