   14
 0045.xyz Energy 0.0879286
   C      0.196284      0.014456      1.441557
   C     -0.009358     -0.001328     -0.113983
   O      1.056944      0.078254     -0.837506
   O     -1.239914     -0.091472     -0.502007
   H      1.260827      0.076823      1.698358
   H     -0.342197      0.873172      1.869493
   H     -0.241688     -0.896615      1.875463
   C      0.826600     -0.574244      6.590619
   C     -0.060276      0.044470      5.453567
   O      0.523282      0.266998      4.323629
   O     -1.291786      0.266864      5.780492
   H      1.851112     -0.750073      6.240556
   H      0.838520      0.108870      7.452999
   H      0.377659     -1.520249      6.927771
