   14
 0048.xyz Energy 0.100694
   C      1.393294      0.091935      0.408784
   C     -0.108402     -0.012895     -0.034121
   O     -0.444267     -1.074728     -0.687210
   O     -0.850517      0.989908      0.307357
   H      1.958586     -0.796116      0.100730
   H      1.840522      0.992786     -0.037242
   H      1.442799      0.207888      1.501600
   C      1.366124      0.027260      5.239786
   C     -0.105600     -0.006197      4.696505
   O     -0.307709     -0.690369      3.620456
   O     -0.961896      0.665570      5.395391
   H      2.033236     -0.573555      4.609652
   H      1.717930      1.069308      5.268990
   H      1.381422     -0.353097      6.271890
