   14
 0049.xyz Energy 0.084328
   C      0.550500     -0.858044      1.038043
   C     -0.040173      0.064178     -0.085725
   O      0.411262     -0.121798     -1.280898
   O     -0.922957      0.919572      0.316703
   H      1.278778     -1.566588      0.624929
   H      1.031434     -0.232323      1.804634
   H     -0.268902     -1.404809      1.527709
   C     -0.683501     -1.269819      5.972897
   C      0.055057      0.099828      5.770801
   O      0.484402      0.686449      6.837740
   O      0.150450      0.493631      4.542479
   H     -0.714333     -1.548950      7.033191
   H     -1.707140     -1.191271      5.577325
   H     -0.167276     -2.050102      5.394266
