   14
 0051.xyz Energy 0.106528
   C      0.091368     -1.451200      0.049947
   C     -0.005395      0.114231      0.001915
   O      0.177342      0.737831      1.117509
   O     -0.262605      0.610679     -1.164420
   H      0.326029     -1.801274      1.062602
   H     -0.864022     -1.883618     -0.282814
   H      0.866944     -1.789276     -0.653139
   C      0.264672      0.508260      6.717327
   C     -0.026557     -0.041069      5.276610
   O     -1.187266     -0.573296      5.086055
   O      0.941917      0.100919      4.431120
   H     -0.601772      0.369237      7.375380
   H      1.138354     -0.014313      7.134559
   H      0.520567      1.576294      6.654362
