   14
 0053.xyz Energy 0.0947057
   C     -0.443324     -1.319834     -0.422286
   C      0.034352      0.105599      0.027392
   O      0.239819      0.967749     -0.911384
   O      0.172377      0.258485      1.304315
   H     -0.553447     -1.373584     -1.512273
   H      0.286318     -2.070183     -0.083046
   H     -1.402523     -1.551954      0.063720
   C      1.445649     -0.062367      5.708236
   C     -0.114154      0.003888      5.865926
   O     -0.806329     -0.041630      4.777054
   O     -0.536994      0.099876      7.084511
   H      1.732057     -0.158164      4.653779
   H      1.891965      0.848039      6.135375
   H      1.833039     -0.917591      6.281529
