   14
 0054.xyz Energy 0.0739195
   C      0.382259     -0.687596      1.223893
   C     -0.024399      0.056363     -0.096485
   O      0.845625      0.872765     -0.589805
   O     -1.201437     -0.233878     -0.547370
   H      1.394431     -0.406612      1.539557
   H     -0.338901     -0.438860      2.016700
   H      0.328169     -1.774106      1.060446
   C     -1.427043      0.140226      6.666389
   C      0.113169     -0.009575      6.406485
   O      0.896837      0.322926      7.377117
   O      0.429165     -0.453179      5.233319
   H     -1.622277      0.505020      7.682212
   H     -1.852402      0.838708      5.930401
   H     -1.917418     -0.833009      6.516421
