   14
 0055.xyz Energy 0.0892418
   C     -1.230049     -0.256405      0.733525
   C      0.099179      0.015325     -0.054864
   O      1.115535     -0.716485      0.258656
   O      0.027320      0.955327     -0.940408
   H     -1.101525     -1.073109      1.454333
   H     -1.533692      0.661309      1.258964
   H     -2.030382     -0.506733      0.021523
   C     -1.440516      0.010785      5.744013
   C      0.113937     -0.000451      5.530020
   O      0.841875      0.191293      6.578906
   O      0.496664     -0.201156      4.310925
   H     -1.692495      0.170088      6.799577
   H     -1.885083      0.807716      5.129402
   H     -1.862133     -0.944384      5.397552
