   14
 0056.xyz Energy 0.097512
   C      0.902768     -1.138520     -0.074870
   C     -0.071449      0.089311     -0.000203
   O     -0.441522      0.601172     -1.126198
   O     -0.397180      0.456944      1.196334
   H      1.123625     -1.404416     -1.115834
   H      1.835800     -0.893383      0.454132
   H      0.447664     -1.995761      0.442975
   C     -0.902489      0.618873      6.678818
   C      0.072926     -0.043066      5.643133
   O      0.734053      0.760217      4.878628
   O      0.104262     -1.335827      5.670389
   H     -0.867001      1.713049      6.610943
   H     -1.926987      0.265781      6.488514
   H     -0.627878      0.296748      7.694184
