   14
 0057.xyz Energy 0.0810717
   C     -0.641690     -0.016601      1.305673
   C      0.054246     -0.003043     -0.100646
   O      1.113794     -0.729861     -0.226799
   O     -0.517737      0.745839     -0.986630
   H     -0.114499     -0.681643      2.000564
   H     -0.661413      1.006436      1.710015
   H     -1.685585     -0.344344      1.191604
   C      1.410356     -0.357169      5.087710
   C     -0.112210      0.022117      5.101099
   O     -0.950826     -0.955210      5.009583
   O     -0.359629      1.287674      5.201628
   H      1.545962     -1.443251      5.016139
   H      1.899432      0.137380      4.235236
   H      1.887326      0.021010      6.004019
