   14
 0058.xyz Energy 0.104326
   C     -0.270427     -1.329393      0.525744
   C      0.026744      0.104272     -0.038647
   O      1.125226      0.660590      0.349513
   O     -0.874529      0.574857     -0.838154
   H      0.539454     -1.670984      1.181866
   H     -1.219245     -1.310115      1.082391
   H     -0.395920     -2.031145     -0.312075
   C      1.416289     -0.197775      4.428017
   C     -0.109808      0.019977      4.135009
   O     -0.414435      1.018200      3.375026
   O     -0.901813     -0.834705      4.696437
   H      2.028381      0.550613      3.909996
   H      1.589341     -0.136011      5.512786
   H      1.707626     -1.208652      4.106466
