   14
 0060.xyz Energy 0.0711115
   C      0.183579     -0.283848      1.415116
   C     -0.012237      0.027927     -0.110235
   O      0.212379      1.243123     -0.483953
   O     -0.383362     -0.979825     -0.831108
   H      0.512128      0.608726      1.961424
   H     -0.765116     -0.650528      1.834651
   H      0.925362     -1.088094      1.529525
   C     -0.320321      1.418270      6.547763
   C      0.025774     -0.111415      6.598025
   O      0.152185     -0.711723      5.462036
   O      0.145228     -0.606261      7.787064
   H     -0.391217      1.773103      5.512315
   H     -1.274180      1.591192      7.068088
   H      0.454265      1.984174      7.086198
