   14
 0062.xyz Energy 0.114167
   C     -0.186036      1.429120      0.199571
   C      0.013752     -0.111457     -0.021671
   O     -0.193065     -0.554057     -1.216724
   O      0.365829     -0.774073      1.031865
   H     -0.467918      1.928849     -0.735256
   H     -0.966847      1.587919      0.958256
   H      0.745341      1.863943      0.591504
   C     -0.141965      1.377811      5.485315
   C      0.012176     -0.106209      4.999346
   O      0.143071     -0.285938      3.727582
   O     -0.011439     -0.994606      5.939106
   H     -0.097803      2.076311      4.640783
   H     -1.101491      1.488719      6.012093
   H      0.656410      1.609216      6.205865
