   14
 0063.xyz Energy 0.108243
   C     -1.195484     -0.818289      0.134324
   C      0.090457      0.068826     -0.012726
   O     -0.061631      1.213743     -0.589661
   O      1.172901     -0.453840      0.464862
   H     -2.075619     -0.308752     -0.276555
   H     -1.038548     -1.773338     -0.388875
   H     -1.358003     -1.049590      1.197448
   C      0.516161      1.186624      5.185074
   C     -0.039705     -0.090462      4.462367
   O     -0.202154     -0.005154      3.184418
   O     -0.277757     -1.097716      5.238077
   H      0.709209      1.993562      4.467668
   H     -0.212148      1.522587      5.938187
   H      1.443318      0.928323      5.717808
