   14
 0064.xyz Energy 0.128502
   C      0.588017     -0.896509     -0.983530
   C     -0.040739      0.070891      0.079977
   O      0.722046      0.425313      1.059448
   O     -1.269029      0.407578     -0.145636
   H      1.632028     -1.127236     -0.738802
   H     -0.000817     -1.825120     -1.021504
   H      0.529922     -0.430426     -1.978284
   C     -1.062101     -0.484752      5.228206
   C      0.082479      0.043728      4.293921
   O      0.250401      1.323217      4.254798
   O      0.736526     -0.873262      3.658068
   H     -1.562697      0.342609      5.745858
   H     -1.792438     -1.044678      4.625232
   H     -0.637619     -1.185031      5.962759
