   14
 0065.xyz Energy 0.0788855
   C      1.043723      0.234340      0.986180
   C     -0.086129     -0.016412     -0.073444
   O     -1.301416      0.151732      0.328581
   O      0.331897     -0.369869     -1.245314
   H      0.619962      0.544615      1.949115
   H      1.630019     -0.687597      1.115698
   H      1.728928      1.008722      0.610721
   C     -0.465965      1.237678      4.993490
   C      0.037234     -0.099628      5.642063
   O      0.229515     -1.092923      4.840057
   O      0.203242     -0.057038      6.924086
   H     -0.569663      1.134592      3.906427
   H     -1.434507      1.513294      5.436712
   H      0.243589      2.044972      5.227914
