   14
 0066.xyz Energy 0.0727567
   C     -0.113766     -0.948275      1.097567
   C      0.004460      0.077807     -0.083712
   O     -0.875527      1.021883     -0.117805
   O      0.981538     -0.141107     -0.902462
   H     -0.951221     -0.694187      1.758775
   H     -0.255508     -1.959006      0.686692
   H      0.826476     -0.955255      1.668567
   C      1.121242     -0.122039      5.000900
   C     -0.084774      0.006747      5.996481
   O      0.042347     -0.586391      7.136151
   O     -1.084657      0.699894      5.557463
   H      1.936891     -0.707473      5.442569
   H      0.775779     -0.602955      4.073613
   H      1.481802      0.882581      4.734671
