   14
 0067.xyz Energy 0.0824005
   C     -0.818245      0.442184      1.118826
   C      0.060013     -0.032641     -0.091730
   O     -0.468262      0.075157     -1.264814
   O      1.228940     -0.486435      0.225503
   H     -1.786511      0.827628      0.776800
   H     -0.974143     -0.402316      1.806577
   H     -0.278835      1.222974      1.675195
   C     -1.408298     -0.351454      5.199997
   C      0.111886      0.021816      5.309334
   O      0.902326     -0.900888      5.745960
   O      0.406205      1.228074      4.947019
   H     -1.582896     -1.389747      5.507487
   H     -1.995123      0.329702      5.834149
   H     -1.744821     -0.205553      4.162881
