   14
 0071.xyz Energy 0.0918425
   C      0.380808     -1.355934     -0.365038
   C     -0.023999      0.108019      0.028940
   O      0.939337      0.907801      0.343823
   O     -1.293765      0.352020     -0.004443
   H      1.469180     -1.487484     -0.330009
   H     -0.103432     -2.063661      0.324252
   H      0.008500     -1.576403     -1.376435
   C      1.177268     -0.392633      4.240590
   C     -0.093862      0.034872      5.055276
   O     -0.764073      1.037419      4.594260
   O     -0.329677     -0.672807      6.111939
   H      1.307483      0.237949      3.352616
   H      2.064452     -0.315817      4.886724
   H      1.079779     -1.446710      3.941322
