   14
 0072.xyz Energy 0.0877018
   C     -0.196088     -1.050432     -0.987403
   C      0.019259      0.085294      0.073726
   O      0.917578      0.970313     -0.203011
   O     -0.735578      0.005446      1.121008
   H      0.463447     -0.912230     -1.852852
   H      0.001683     -2.026122     -0.518999
   H     -1.247007     -1.049722     -1.312535
   C      0.822089      0.741270      4.795801
   C     -0.063421     -0.053973      5.818397
   O     -0.079164      0.386184      7.032001
   O     -0.684722     -1.075522      5.325062
   H      1.305684      1.600220      5.276869
   H      1.585647      0.068408      4.377804
   H      0.193871      1.083719      3.960208
