   14
 0074.xyz Energy 0.0989261
   C     -0.115556     -1.362025      0.498356
   C      0.010936      0.104780     -0.044530
   O      0.523267      0.241884     -1.221620
   O     -0.415876      1.024008      0.759091
   H      0.249531     -2.088318     -0.238052
   H      0.460537     -1.454028      1.431168
   H     -1.168095     -1.570392      0.741022
   C     -1.111763     -0.936023      4.651687
   C      0.090950      0.068973      4.727236
   O      1.192737     -0.386386      5.222748
   O     -0.160010      1.256668      4.280743
   H     -0.824779     -1.924284      5.031247
   H     -1.952667     -0.539581      5.240074
   H     -1.451478     -1.018742      3.608664
