   14
 0075.xyz Energy 0.0820098
   C     -0.612716      1.318125      0.062837
   C      0.046773     -0.103804     -0.010887
   O     -0.068986     -0.735849     -1.130681
   O      0.638314     -0.489090      1.072898
   H     -1.081119      1.585972     -0.892121
   H     -1.366591      1.326736      0.864138
   H      0.154290      2.061434      0.326156
   C     -0.901724      0.594156      4.924964
   C      0.066114     -0.047383      5.980407
   O     -0.437580     -0.310751      7.139609
   O      1.276000     -0.241129      5.566167
   H     -1.910912      0.715325      5.337210
   H     -0.504190      1.572581      4.616523
   H     -0.936379     -0.043027      4.028895
