   14
 0076.xyz Energy 0.0653491
   C      0.679716     -0.704971      1.076023
   C     -0.058749      0.054075     -0.081890
   O     -1.348192     -0.010391     -0.083324
   O      0.717058      0.665449     -0.916935
   H     -0.037069     -1.185904      1.752787
   H      1.350463     -1.461974      0.642974
   H      1.305432      0.005935      1.635697
   C      0.516224     -0.435110      5.331196
   C     -0.035746      0.031564      6.723959
   O      0.598914     -0.389652      7.766362
   O     -1.079179      0.794062      6.671030
   H      1.407216     -1.063645      5.450210
   H     -0.267780     -0.995110      4.799950
   H      0.758632      0.448026      4.721727
