   14
 0078.xyz Energy 0.100744
   C      0.086043     -0.372941     -1.403686
   C     -0.007765      0.023438      0.111677
   O     -0.351861     -0.912025      0.932243
   O      0.271806      1.259169      0.371993
   H     -0.148011     -1.434606     -1.549195
   H     -0.613465      0.246828     -1.984255
   H      1.099462     -0.157923     -1.773679
   C      0.243581     -1.322397      6.695660
   C     -0.018188      0.106291      6.101884
   O     -0.056847      1.083099      6.945193
   O     -0.169785      0.145504      4.817969
   H      0.377428     -1.279291      7.783462
   H     -0.604837     -1.978136      6.449327
   H      1.139059     -1.753612      6.224155
