   14
 0079.xyz Energy 0.106759
   C     -1.128701      0.381587     -0.835014
   C      0.087903     -0.035775      0.063833
   O      0.324632     -1.301086      0.162668
   O      0.724174      0.947014      0.613596
   H     -1.610662     -0.497529     -1.279937
   H     -1.856012      0.937654     -0.224854
   H     -0.779352      1.059526     -1.627792
   C      0.194272     -0.931276      6.420821
   C     -0.011615      0.077150      5.236367
   O      0.500506      1.253002      5.384440
   O     -0.681538     -0.387907      4.232434
   H      0.781456     -0.477130      7.228318
   H     -0.788029     -1.245246      6.804219
   H      0.703627     -1.831885      6.047184
