   14
 0080.xyz Energy 0.0744623
   C      1.200395     -0.822018      0.012718
   C     -0.097104      0.060280     -0.004317
   O     -1.072552     -0.362688     -0.736723
   O     -0.042598      1.127052      0.725055
   H      1.078875     -1.714790     -0.612803
   H      2.049763     -0.224284     -0.350289
   H      1.425818     -1.117141      1.048204
   C      0.066438      1.207844      5.531593
   C     -0.005290     -0.098209      6.398381
   O     -0.166966     -1.207382      5.757743
   O      0.105037      0.085306      7.673962
   H     -0.018237      0.977260      4.462599
   H     -0.744757      1.887435      5.832597
   H      1.017366      1.724103      5.729978
