   14
 0081.xyz Energy 0.0887332
   C     -0.357263      1.113198     -0.866012
   C      0.028959     -0.083497      0.072603
   O      0.458244      0.223091      1.250965
   O     -0.126150     -1.257898     -0.446703
   H     -0.216072      2.074916     -0.357829
   H      0.262648      1.075989     -1.774203
   H     -1.405979      1.005114     -1.180110
   C      1.296994     -0.657220      6.371891
   C     -0.100309      0.054944      6.320806
   O     -0.373375      0.859584      7.292819
   O     -0.832094     -0.249310      5.298614
   H      1.868497     -0.342350      7.253554
   H      1.147614     -1.747045      6.393145
   H      1.859137     -0.421040      5.456273
