   14
 0082.xyz Energy 0.0778961
   C     -0.297899      1.205909      0.757538
   C      0.020245     -0.092453     -0.064218
   O     -0.555442     -0.202422     -1.214570
   O      0.832404     -0.918481      0.511138
   H     -0.978089      1.865798      0.205293
   H     -0.750456      0.923791      1.719872
   H      0.640734      1.735068      0.979127
   C     -0.638342      0.415610      4.180399
   C      0.053396     -0.027476      5.517342
   O      1.011281      0.723661      5.947539
   O     -0.418262     -1.110452      6.044273
   H     -0.200416      1.346084      3.798921
   H     -0.527015     -0.383751      3.432659
   H     -1.715595      0.552370      4.356368
