   14
 0083.xyz Energy 0.111609
   C     -0.910528     -1.001391     -0.533832
   C      0.073637      0.079639      0.036286
   O      0.923536      0.581812     -0.795769
   O     -0.077482      0.348509      1.292402
   H     -0.736938     -1.167992     -1.603971
   H     -0.773257     -1.943266      0.017996
   H     -1.947194     -0.672538     -0.368534
   C      1.424149     -0.297031      5.239867
   C     -0.111679      0.024276      5.224472
   O     -0.674752      0.204239      6.372245
   O     -0.648712      0.071500      4.048751
   H      1.815247     -0.306149      6.264585
   H      1.594362     -1.275420      4.766297
   H      1.958910      0.454791      4.640753
