   14
 0084.xyz Energy 0.0845128
   C      0.929185     -0.744371      0.836272
   C     -0.069998      0.063615     -0.064304
   O      0.045924      1.349297     -0.044261
   O     -0.909781     -0.658045     -0.732830
   H      1.619712     -0.072566      1.360615
   H      0.359615     -1.338665      1.566265
   H      1.494983     -1.449430      0.209448
   C      1.252639     -0.675632      4.697939
   C     -0.095239      0.058057      5.025307
   O      0.000768      1.229511      5.559440
   O     -1.165086     -0.602212      4.721289
   H      2.115643     -0.054167      4.966436
   H      1.290851     -1.626578      5.249961
   H      1.283654     -0.917628      3.625270
