   14
 0086.xyz Energy 0.109047
   C      1.429374      0.205749     -0.177144
   C     -0.112614     -0.018239      0.008179
   O     -0.773074     -0.379411     -1.040709
   O     -0.555189      0.188598      1.205803
   H      1.737093     -0.001519     -1.209343
   H      1.678716      1.244637      0.085582
   H      1.977781     -0.448619      0.516539
   C      0.632908      1.183312      5.782160
   C     -0.046887     -0.096366      5.180043
   O      0.325264     -1.231562      5.669588
   O     -0.913516      0.132259      4.247498
   H      1.342400      0.917266      6.575209
   H      1.154963      1.727255      4.980866
   H     -0.142799      1.853170      6.181802
