   14
 0087.xyz Energy 0.0912312
   C     -1.368866      0.460230      0.176687
   C      0.109411     -0.031773     -0.010058
   O      1.029801      0.683833      0.544567
   O      0.242074     -1.111800     -0.709271
   H     -1.408007      1.368626      0.790179
   H     -1.812733      0.656798     -0.810646
   H     -1.960630     -0.337618      0.649335
   C      1.207341     -0.387143      3.926367
   C     -0.093046      0.026990      4.700791
   O     -0.300548     -0.557170      5.833274
   O     -0.821650      0.917097      4.109351
   H      1.782784     -1.131104      4.490701
   H      0.928972     -0.796852      2.943954
   H      1.823462      0.506267      3.746483
