   14
 0091.xyz Energy 0.103076
   C      0.417499      1.363669      0.287964
   C     -0.033015     -0.105715     -0.028562
   O     -0.359217     -0.358021     -1.251981
   O     -0.028916     -0.909263      0.984972
   H      0.404917      1.983896     -0.616606
   H     -0.255015      1.793644      1.045152
   H      1.429591      1.348826      0.718770
   C     -1.389338      0.015791      4.068361
   C      0.110721      0.001425      4.528642
   O      0.984237      0.387652      3.659955
   O      0.306693     -0.402757      5.741568
   H     -1.482822      0.382480      3.038853
   H     -1.800404     -1.002154      4.141157
   H     -1.972261      0.654295      4.748550
