   14
 0093.xyz Energy 0.094168
   C      1.450703      0.075512     -0.081131
   C     -0.113522     -0.006252      0.012458
   O     -0.610807     -0.218389      1.184860
   O     -0.737305      0.148052     -1.110057
   H      1.912197     -0.048173      0.906194
   H      1.814166     -0.706778     -0.764068
   H      1.738961      1.046129     -0.511194
   C     -1.450119     -0.117052      5.616662
   C      0.113946      0.006975      5.592999
   O      0.715243     -0.476951      4.558071
   O      0.632306      0.585751      6.627059
   H     -1.821442     -0.602009      4.705606
   H     -1.754122     -0.698472      6.499849
   H     -1.892857      0.885127      5.715469
