   14
 0095.xyz Energy 0.0937733
   C      1.133220      0.912024      0.029123
   C     -0.089304     -0.071356      0.003808
   O     -0.524455     -0.480081      1.148538
   O     -0.528451     -0.367606     -1.176168
   H      1.442446      1.130932      1.058465
   H      1.970882      0.463020     -0.525137
   H      0.860610      1.844374     -0.487163
   C     -1.446405     -0.083825      5.246921
   C      0.113273      0.003178      5.395513
   O      0.619446     -0.503915      6.469508
   O      0.724653      0.582297      4.413785
   H     -1.896516     -0.598499      6.104591
   H     -1.859506      0.932366      5.162132
   H     -1.693862     -0.617081      4.317111
