   14
 0096.xyz Energy 0.0766039
   C     -0.895355     -0.630079      0.958208
   C      0.074376      0.045015     -0.074319
   O      1.247978     -0.480032     -0.191810
   O     -0.416263      1.066070     -0.698559
   H     -0.421303     -1.495264      1.437601
   H     -1.183408      0.108466      1.721138
   H     -1.814690     -0.944020      0.442060
   C      0.450418     -1.377167      6.351756
   C     -0.035859      0.107364      6.203615
   O     -0.192278      0.545526      4.999303
   O     -0.226045      0.734356      7.318813
   H      0.576060     -1.851131      5.370604
   H      1.404633     -1.392913      6.899214
   H     -0.280345     -1.941128      6.950152
