   14
 0097.xyz Energy 0.0714414
   C     -0.781906     -0.840372      0.893992
   C      0.066195      0.065446     -0.066457
   O      1.244732      0.396220      0.343980
   O     -0.518652      0.384918     -1.174990
   H     -0.220784     -1.084234      1.804355
   H     -1.712758     -0.316593      1.157913
   H     -1.063456     -1.764501      0.367817
   C      0.334888      1.137817      5.257358
   C     -0.031182     -0.086324      6.168245
   O     -1.017686      0.077113      6.984896
   O      0.707061     -1.134656      5.998088
   H     -0.338688      1.983345      5.443008
   H      1.374732      1.438186      5.454812
   H      0.275695      0.835713      4.201246
