   14
 0098.xyz Energy 0.0908774
   C      0.276356     -1.400890      0.279209
   C     -0.022574      0.108621     -0.027810
   O     -0.178896      0.424543     -1.269816
   O     -0.077638      0.877415      1.010881
   H      0.293441     -1.995275     -0.642475
   H      1.245723     -1.480947      0.793412
   H     -0.491171     -1.791635      0.963581
   C     -0.709093     -1.134150      6.692464
   C      0.060161      0.088269      6.079125
   O      1.129210      0.465713      6.696774
   O     -0.470795      0.588406      5.010994
   H     -0.196623     -1.516054      7.583874
   H     -1.732050     -0.824485      6.953524
   H     -0.789964     -1.929246      5.936537
