   14
 0099.xyz Energy 0.101415
   C      1.052792     -0.171703     -0.989430
   C     -0.086628      0.010797      0.073895
   O     -1.278886     -0.318480     -0.296127
   O      0.300898      0.478469      1.215851
   H      0.656910     -0.584826     -1.925215
   H      1.527729      0.801821     -1.182227
   H      1.826595     -0.839202     -0.582222
   C      0.107463     -0.857473      7.250476
   C     -0.003924      0.070820      5.990275
   O      0.722288      1.138256      5.994295
   O     -0.822711     -0.341658      5.077911
   H      0.827920     -0.456349      7.973753
   H     -0.882671     -0.949575      7.721259
   H      0.415034     -1.865070      6.933787
