   14
 0101.xyz Energy 0.0935221
   C     -0.727751      1.216835     -0.326367
   C      0.052463     -0.098869      0.023536
   O     -0.589855     -1.208284     -0.129591
   O      1.266491      0.077840      0.433250
   H     -1.741390      0.992377     -0.680261
   H     -0.777159      1.857185      0.566940
   H     -0.175272      1.772793     -1.098261
   C      1.326724      0.558092      5.792507
   C     -0.102939     -0.044414      5.557361
   O     -0.440869     -0.265947      4.331169
   O     -0.792195     -0.252430      6.631889
   H      1.858998      0.693602      4.843082
   H      1.231963      1.524918      6.308990
   H      1.899383     -0.111082      6.451607
