   14
 0105.xyz Energy 0.111351
   C     -0.788128     -1.175123      0.338769
   C      0.061091      0.094400     -0.020930
   O      0.123623      1.019833      0.877115
   O      0.608667      0.072056     -1.192517
   H     -1.208781     -1.095483      1.348618
   H     -1.599201     -1.288537     -0.395930
   H     -0.152602     -2.070121      0.266461
   C      0.646202     -1.269644      4.735380
   C     -0.045776      0.101466      4.413718
   O      0.679187      0.987244      3.816521
   O     -1.280075      0.192498      4.789452
   H      1.682662     -1.282437      4.376668
   H      0.624836     -1.440102      5.822106
   H      0.075994     -2.084006      4.264402
