   14
 0106.xyz Energy 0.0858223
   C     -1.093450     -0.376092      0.883032
   C      0.082528      0.034210     -0.071417
   O     -0.156412      0.993798     -0.901428
   O      1.172757     -0.644870      0.080915
   H     -1.978297      0.248643      0.710297
   H     -1.344395     -1.434001      0.714687
   H     -0.764049     -0.279465      1.928165
   C     -1.436240      0.193585      5.588692
   C      0.112473     -0.013340      5.444084
   O      0.607666      0.145447      4.262395
   O      0.726978     -0.325701      6.538512
   H     -1.888810      0.470435      4.628680
   H     -1.892458     -0.735062      5.962813
   H     -1.630107      0.978081      6.335100
