   14
 0108.xyz Energy 0.119134
   C      0.848354     -1.128678     -0.351005
   C     -0.063487      0.089317      0.032763
   O      0.111437      0.592732      1.208686
   O     -0.900204      0.455918     -0.882913
   H      1.541362     -1.374786      0.462787
   H      0.214231     -1.998732     -0.577674
   H      1.412361     -0.887149     -1.264079
   C     -0.312963     -0.319908      6.384390
   C      0.022692      0.019556      4.889618
   O     -0.094801     -0.944450      4.038908
   O      0.385989      1.242188      4.674814
   H     -0.627252     -1.365373      6.490743
   H      0.574485     -0.131412      7.006796
   H     -1.110495      0.349657      6.739032
