   14
 0109.xyz Energy 0.112607
   C     -1.131477     -0.897690     -0.175314
   C      0.085863      0.074805      0.010637
   O      0.022623      1.203674     -0.612640
   O      1.029179     -0.369962      0.775682
   H     -1.897824     -0.451807     -0.821060
   H     -0.776827     -1.842342     -0.613881
   H     -1.561539     -1.134245      0.809182
   C      0.485167     -0.666967      5.938579
   C     -0.032332      0.053587      4.644268
   O      0.855585      0.653095      3.923842
   O     -1.306989     -0.033252      4.442615
   H      1.572826     -0.566256      6.038298
   H     -0.012475     -0.232737      6.818512
   H      0.209006     -1.731009      5.897418
