   14
 0111.xyz Energy 0.0990933
   C     -0.748719      1.185100      0.389592
   C      0.063859     -0.089673     -0.031020
   O      1.291413      0.099229     -0.383507
   O     -0.596178     -1.200784      0.021325
   H     -0.125209      2.085932      0.336473
   H     -1.620124      1.294265     -0.273147
   H     -1.129643      1.052153      1.413001
   C     -1.439024      0.212467      4.590132
   C      0.112699     -0.017611      4.628376
   O      0.646304     -0.157954      5.795590
   O      0.690983     -0.039202      3.471623
   H     -1.864365      0.203847      5.601120
   H     -1.650452      1.176586      4.104068
   H     -1.908054     -0.572777      3.978947
