   14
 0114.xyz Energy 0.0912568
   C     -0.890636     -0.803780     -0.823121
   C      0.074391      0.059034      0.063737
   O      1.232060     -0.451329      0.320939
   O     -0.404907      1.198541      0.444202
   H     -0.415624     -1.746397     -1.121321
   H     -1.812076     -1.011827     -0.259072
   H     -1.175693     -0.228205     -1.716205
   C     -0.887447     -0.895202      4.433450
   C      0.064863      0.073634      5.218757
   O     -0.478325      1.127659      5.729441
   O      1.303476     -0.295987      5.265392
   H     -1.921392     -0.529338      4.447216
   H     -0.536615     -0.984697      3.394512
   H     -0.838050     -1.897649      4.883787
