   14
 0116.xyz Energy 0.102952
   C      0.051650     -0.226561     -1.436254
   C     -0.003827      0.023816      0.111802
   O      0.140269      1.245402      0.503953
   O     -0.188091     -1.035447      0.830805
   H      0.194214      0.713408     -1.983264
   H      0.876368     -0.918941     -1.661944
   H     -0.881351     -0.711279     -1.759828
   C      0.857551      1.175090      5.464346
   C     -0.063258     -0.095132      5.434554
   O      0.308236     -1.058686      4.659715
   O     -1.105605     -0.032940      6.197837
   H      1.727161      1.047687      4.808119
   H      0.274877      2.052493      5.146321
   H      1.190156      1.358908      6.496688
