   14
 0117.xyz Energy 0.0760076
   C     -0.775367     -0.214258      1.212321
   C      0.056485      0.020492     -0.097319
   O     -0.518619      0.701078     -1.031598
   O      1.239469     -0.502480     -0.094849
   H     -1.758480      0.267752      1.147197
   H     -0.899349     -1.295472      1.373848
   H     -0.218329      0.184199      2.073185
   C     -1.057637      0.995809      5.698806
   C      0.078844     -0.082622      5.786214
   O     -0.299764     -1.310735      5.909569
   O      1.282975      0.385791      5.726094
   H     -2.049146      0.528621      5.740429
   H     -0.945341      1.708611      6.529341
   H     -0.949158      1.563272      4.762664
