   14
 0118.xyz Energy 0.0976898
   C     -0.610411     -1.303839      0.210301
   C      0.047125      0.101749     -0.022536
   O      0.247445      0.448538     -1.249902
   O      0.320041      0.763045      1.055036
   H     -0.828116     -1.800569     -0.743088
   H      0.069824     -1.927232      0.809588
   H     -1.537553     -1.180097      0.789300
   C      1.044013     -0.981228      4.786917
   C     -0.084735      0.073097      5.063628
   O     -1.083370     -0.325302      5.778349
   O      0.113366      1.237426      4.536323
   H      0.819035     -1.937553      5.274682
   H      1.142820     -1.129708      3.701248
   H      2.004695     -0.589981      5.153195
