   14
 0119.xyz Energy 0.083304
   C     -1.425012      0.133267     -0.261541
   C      0.111991     -0.004766      0.022735
   O      0.721016      1.058473      0.429467
   O      0.603225     -1.182787     -0.186816
   H     -1.775955      1.150477     -0.048913
   H     -1.622699     -0.117719     -1.314352
   H     -1.975648     -0.590705      0.357172
   C      1.197275     -0.289994      4.705882
   C     -0.092091      0.018934      5.545133
   O     -0.264014     -0.680379      6.616685
   O     -0.848846      0.950076      5.062171
   H      1.797843     -1.075959      5.179870
   H      0.903738     -0.603733      3.693020
   H      1.793960      0.628627      4.604656
