   14
 0122.xyz Energy 0.113318
   C     -1.003251     -1.035742     -0.193775
   C      0.076867      0.084087      0.010111
   O      0.195579      0.950594     -0.939569
   O      0.737016      0.011514      1.120018
   H     -1.533270     -0.904409     -1.145047
   H     -0.512819     -2.020371     -0.172190
   H     -1.718609     -1.007283      0.641448
   C      0.559068      1.307292      5.248630
   C     -0.043189     -0.101511      4.909807
   O     -0.243131     -0.357884      3.660360
   O     -0.276638     -0.856965      5.933402
   H      0.745481      1.886696      4.336145
   H     -0.139175      1.852374      5.901185
   H      1.497006      1.176661      5.808408
