   14
 0125.xyz Energy 0.0810905
   C     -0.369596     -0.961021      1.027940
   C      0.030835      0.070868     -0.084311
   O      0.631520     -0.405128     -1.123265
   O     -0.288060      1.298618      0.168457
   H     -0.083853     -1.980598      0.741758
   H      0.123819     -0.685812      1.972020
   H     -1.455199     -0.909282      1.198038
   C     -1.231267      0.675935      6.279364
   C      0.097843     -0.054196      5.876103
   O      0.866493     -0.428666      6.843455
   O      0.277665     -0.199179      4.603468
   H     -1.325588      0.750365      7.369617
   H     -1.241516      1.681905      5.833938
   H     -2.088737      0.125139      5.865225
