   14
 0130.xyz Energy 0.107236
   C      1.050534     -0.994958     -0.152515
   C     -0.078850      0.081354      0.015670
   O      0.145600      1.024403      0.868373
   O     -1.122239     -0.100231     -0.726842
   H      1.908384     -0.771176      0.493319
   H      0.645117     -1.987277      0.095324
   H      1.370538     -1.024839     -1.204584
   C     -1.201563     -0.636760      5.197306
   C      0.093630      0.054545      4.643397
   O      0.368585      1.225107      5.113509
   O      0.747943     -0.633722      3.765264
   H     -1.696186     -0.006051      5.946066
   H     -1.890587     -0.836554      4.363152
   H     -0.934228     -1.607027      5.641444
