   14
 0131.xyz Energy 0.0974604
   C      1.335607     -0.540607      0.201795
   C     -0.105834      0.042241     -0.009816
   O     -0.861651      0.104973      1.034993
   O     -0.379460      0.397230     -1.223104
   H      1.503883     -0.805516      1.252791
   H      1.463443     -1.430225     -0.432809
   H      2.079389      0.202582     -0.121629
   C     -0.786607      1.154616      5.486122
   C      0.065360     -0.087005      5.044791
   O      0.982415      0.127321      4.161675
   O     -0.251911     -1.200636      5.621090
   H     -0.454563      2.064346      4.971122
   H     -1.846911      0.964475      5.262321
   H     -0.699776      1.286729      6.574769
