   14
 0133.xyz Energy 0.0987544
   C     -0.211530      1.321304     -0.571170
   C      0.018387     -0.105797      0.039375
   O      0.322298     -1.046297     -0.791239
   O     -0.126087     -0.181396      1.322483
   H     -0.058219      1.315361     -1.657239
   H     -1.234565      1.653699     -0.340090
   H      0.479721      2.034665     -0.098483
   C     -0.365592      1.098598      7.121049
   C      0.030714     -0.089424      6.175646
   O      0.665015     -1.073112      6.720476
   O     -0.325295      0.052604      4.940315
   H     -0.047460      0.905052      8.152756
   H      0.100807      2.024935      6.753819
   H     -1.455466      1.243663      7.085348
