   14
 0134.xyz Energy 0.0984242
   C     -1.444002      0.168197      0.058234
   C      0.113695     -0.012363      0.001470
   O      0.759202      0.199484      1.099313
   O      0.582647     -0.355669     -1.154030
   H     -1.772928      0.443404      1.067766
   H     -1.744754      0.947275     -0.658057
   H     -1.930147     -0.768391     -0.252588
   C      0.075888      0.963190      6.887809
   C     -0.000652     -0.073536      5.712402
   O      0.909083      0.019655      4.801074
   O     -0.980205     -0.914780      5.788162
   H      0.935996      1.633188      6.767789
   H     -0.854212      1.550305      6.914185
   H      0.150644      0.424093      7.843806
