   14
 0137.xyz Energy 0.104718
   C     -1.448665      0.087766      0.102428
   C      0.113555     -0.003596     -0.013183
   O      0.641611      0.480143     -1.087414
   O      0.704581     -0.562179      0.992615
   H     -1.881000      0.584431     -0.774782
   H     -1.864594     -0.926069      0.200547
   H     -1.713934      0.640872      1.015582
   C     -0.068280      0.581776      6.731802
   C      0.002955     -0.040570      5.293104
   O     -0.535087      0.645295      4.340779
   O      0.598584     -1.186479      5.221870
   H     -0.570945      1.556536      6.715759
   H     -0.609346     -0.106675      7.397962
   H      0.950779      0.691568      7.131313
