   14
 0138.xyz Energy 0.0886247
   C      1.399602     -0.391516     -0.068220
   C     -0.110306      0.030225     -0.000716
   O     -0.711246      0.205207     -1.129908
   O     -0.589262      0.158853      1.193860
   H      1.733998     -0.496551     -1.107563
   H      2.010491      0.365290      0.446119
   H      1.535790     -1.342479      0.467753
   C      0.022473      1.429235      6.671304
   C     -0.002442     -0.113316      6.384669
   O     -0.018038     -0.891164      7.414975
   O     -0.002584     -0.436875      5.132365
   H      0.005751      1.630699      7.749367
   H      0.927410      1.866362      6.223539
   H     -0.844494      1.902988      6.187496
