   14
 0139.xyz Energy 0.0948285
   C     -0.963697      0.674871     -0.855955
   C      0.080182     -0.049833      0.064567
   O      1.325767      0.189212     -0.176673
   O     -0.430647     -0.816787      0.972197
   H     -0.463176      1.318200     -1.589912
   H     -1.574177     -0.079145     -1.374858
   H     -1.643312      1.274772     -0.232749
   C     -1.038868     -1.011616      5.500797
   C      0.078826      0.081620      5.634359
   O     -0.091594      0.971215      6.554358
   O      1.057131     -0.031243      4.795826
   H     -1.826409     -0.864522      6.249949
   H     -1.471364     -0.965983      4.490179
   H     -0.588749     -2.008250      5.620202
