   14
 0140.xyz Energy 0.0794715
   C     -0.651492      1.091337      0.708072
   C      0.054271     -0.087079     -0.050530
   O      0.989331     -0.706553      0.588794
   O     -0.384076     -0.307332     -1.247316
   H     -0.242150      1.211593      1.718549
   H     -0.516599      2.022092      0.137121
   H     -1.732259      0.893426      0.762075
   C     -1.270457     -0.702672      6.185053
   C      0.100315      0.054922      6.281377
   O      0.768451      0.180057      5.183763
   O      0.412179      0.472761      7.465061
   H     -1.477732     -1.014075      5.153961
   H     -1.244450     -1.583821      6.843373
   H     -2.075070     -0.045989      6.547695
