   14
 0141.xyz Energy 0.0732704
   C      0.962415      1.072160     -0.202618
   C     -0.073384     -0.087040      0.010970
   O     -0.124447     -0.991550     -0.908853
   O     -0.770228     -0.004402      1.097495
   H      1.526966      0.930707     -1.132327
   H      0.428855      2.033891     -0.232170
   H      1.652050      1.105893      0.653775
   C     -0.691944     -1.043230      5.818577
   C      0.048956      0.084016      6.620217
   O     -0.696236      0.967828      7.195008
   O      1.339734      0.001526      6.613622
   H     -1.780226     -0.920620      5.879370
   H     -0.370506     -1.010888      4.766856
   H     -0.401938     -2.025487      6.220089
