   14
 0143.xyz Energy 0.133992
   C     -1.182721     -0.735636      0.420517
   C      0.090287      0.058735     -0.038470
   O      0.123238      0.431099     -1.274220
   O      0.976146      0.252241      0.883900
   H     -1.895933     -0.849364     -0.405001
   H     -0.877978     -1.726110      0.790084
   H     -1.659653     -0.205531      1.258173
   C      0.030825     -0.254978      5.572082
   C     -0.007600      0.023181      4.028258
   O     -1.060216      0.617988      3.575461
   O      1.031960     -0.381511      3.373664
   H     -0.871893      0.126729      6.064512
   H      0.119940     -1.338193      5.742931
   H      0.923735      0.219864      6.004957
