   14
 0146.xyz Energy 0.102039
   C     -0.756366     -1.127133      0.523742
   C      0.054970      0.092290     -0.039272
   O     -0.533149      1.241124     -0.005852
   O      1.236343     -0.194102     -0.481192
   H     -1.739021     -0.810295      0.893999
   H     -0.880819     -1.877540     -0.271170
   H     -0.184413     -1.600833      1.335297
   C     -1.010708     -0.526701      5.424366
   C      0.080473      0.035695      4.446983
   O      0.775982     -0.835789      3.796134
   O      0.163264      1.325748      4.403802
   H     -1.035948     -1.622972      5.399079
   H     -0.794238     -0.181458      6.446341
   H     -1.994180     -0.122081      5.142923
