   14
 0148.xyz Energy 0.0784689
   C      0.618434      0.189989      1.303175
   C     -0.053731     -0.012461     -0.100196
   O     -1.312008      0.264686     -0.182336
   O      0.737750     -0.441648     -1.028804
   H     -0.104415      0.568648      2.036110
   H      1.032753     -0.769074      1.648175
   H      1.458118      0.893996      1.205966
   C      1.168755     -0.559968      6.841266
   C     -0.088538      0.044556      6.122928
   O      0.090466      0.489409      4.924227
   O     -1.176799      0.031074      6.821829
   H      2.049060     -0.530379      6.187604
   H      1.367946      0.008174      7.762148
   H      0.954967     -1.598000      7.136099
