   14
 0150.xyz Energy 0.0830641
   C      0.993194     -1.052433      0.150909
   C     -0.073786      0.086784     -0.010274
   O      0.291650      1.273443      0.343445
   O     -1.215038     -0.295871     -0.483640
   H      1.938347     -0.655662      0.541223
   H      0.601273     -1.822092      0.832458
   H      1.162067     -1.533013     -0.824113
   C      0.002834      1.110854      4.200416
   C     -0.002539     -0.090848      5.209438
   O     -0.552639     -1.184880      4.800409
   O      0.550043      0.152997      6.353181
   H     -0.466150      0.829920      3.249512
   H     -0.535778      1.960467      4.645993
   H      1.039612      1.434751      4.026274
