   14
 0151.xyz Energy 0.114439
   C      1.356535      0.494523     -0.179116
   C     -0.107314     -0.038743      0.008009
   O     -0.837476     -0.104283     -1.054718
   O     -0.423092     -0.355082      1.221751
   H      1.560057      0.728079     -1.231312
   H      1.495532      1.395278      0.437168
   H      2.068250     -0.262733      0.181674
   C      0.091130      0.808512      6.306162
   C     -0.001113     -0.064365      5.005462
   O      1.117559     -0.451752      4.490367
   O     -1.202791     -0.299323      4.588665
   H      1.134812      0.954766      6.610175
   H     -0.384690      1.783414      6.122732
   H     -0.469848      0.316710      7.114604
