   14
 0154.xyz Energy 0.0707427
   C      0.189852     -1.054076      0.984735
   C     -0.010005      0.085668     -0.075116
   O      0.767189      1.111454      0.027606
   O     -0.944193     -0.132118     -0.942767
   H      1.005147     -0.810814      1.676981
   H     -0.746272     -1.195901      1.545132
   H      0.407720     -1.999164      0.465616
   C      0.838345     -0.963984      5.603771
   C     -0.061378      0.076557      6.358764
   O      0.397967      0.533021      7.475662
   O     -1.177508      0.362547      5.771039
   H      1.772291     -1.147249      6.148973
   H      0.282617     -1.906374      5.487351
   H      1.060740     -0.587542      4.594328
