   14
 0155.xyz Energy 0.111043
   C     -1.375748     -0.392119     -0.265300
   C      0.107443      0.035398      0.016864
   O      0.582603      0.986797     -0.715177
   O      0.695946     -0.622970      0.961942
   H     -1.816346      0.215576     -1.065091
   H     -1.398854     -1.455168     -0.547928
   H     -1.966648     -0.284890      0.656374
   C      0.004545      0.254874      6.612425
   C      0.000144     -0.014014      5.066488
   O     -0.028610      1.024867      4.300511
   O      0.024143     -1.262266      4.728485
   H     -0.001105      1.330727      6.825956
   H     -0.878236     -0.220553      7.065362
   H      0.894384     -0.211922      7.060122
