   14
 0156.xyz Energy 0.0783242
   C      1.034621      1.001483      0.208363
   C     -0.085216     -0.074202     -0.017715
   O     -1.276709      0.371306     -0.238362
   O      0.315602     -1.302356      0.045057
   H      0.628644      2.017136      0.126397
   H      1.480530      0.856576      1.203679
   H      1.833797      0.855775     -0.533412
   C      0.506574      1.037687      4.654894
   C     -0.034297     -0.084178      5.609421
   O      0.763050     -1.070735      5.849763
   O     -1.234366      0.106601      6.052584
   H      1.531448      0.819697      4.330550
   H     -0.153753      1.117066      3.778451
   H      0.476055      2.005357      5.177223
