   14
 0158.xyz Energy 0.0968933
   C      1.030572     -1.013802     -0.164166
   C     -0.083516      0.077766      0.007675
   O     -0.913663      0.213697     -0.971712
   O     -0.043652      0.728695      1.124661
   H      0.927730     -1.535114     -1.123720
   H      2.019302     -0.535079     -0.103159
   H      0.963738     -1.735011      0.663805
   C      0.214120      0.501437      7.428902
   C     -0.015543     -0.045027      5.976017
   O      0.256277     -1.291684      5.779091
   O     -0.455180      0.826284      5.127199
   H      0.571202     -0.291729      8.097084
   H      0.947746      1.320705      7.396073
   H     -0.727901      0.919951      7.813073
