   14
 0159.xyz Energy 0.103546
   C      0.797813      0.231761     -1.194405
   C     -0.057807     -0.020779      0.096478
   O      0.502989     -0.707683      1.034823
   O     -1.244882      0.492386      0.074768
   H      1.794575     -0.216420     -1.101212
   H      0.276143     -0.194941     -2.064044
   H      0.887759      1.314812     -1.364861
   C     -0.741037      1.141289      5.894925
   C      0.053125     -0.093018      5.339914
   O     -0.576612     -1.219778      5.314181
   O      1.265759      0.159492      4.967470
   H     -1.762866      0.859022      6.176486
   H     -0.211870      1.549307      6.768989
   H     -0.767243      1.930862      5.129398
