   14
 0161.xyz Energy 0.0759292
   C      0.869096     -0.327237     -1.120005
   C     -0.065122      0.021797      0.091463
   O      0.101801     -0.672358      1.167152
   O     -0.909839      0.976673     -0.126760
   H      1.567715     -1.132066     -0.860641
   H      0.251253     -0.630950     -1.978208
   H      1.427221      0.572126     -1.419649
   C     -0.808467      0.529599      5.632467
   C      0.068475     -0.041000      6.801925
   O      1.314127     -0.254003      6.537726
   O     -0.563350     -0.238372      7.913139
   H     -0.207300      0.686315      4.728517
   H     -1.628436     -0.172177      5.418814
   H     -1.263941      1.479398      5.949594
