   14
 0162.xyz Energy 0.113648
   C      1.102700      0.947699      0.052366
   C     -0.083606     -0.077595     -0.008393
   O     -0.013865     -0.986736     -0.922405
   O     -1.011203      0.106485      0.874010
   H      1.857524      0.723674     -0.711270
   H      0.710550      1.964750     -0.097002
   H      1.559759      0.916033      1.052485
   C     -0.236909     -1.396665      3.948303
   C      0.020364      0.108004      4.311653
   O      0.331650      0.359803      5.539056
   O     -0.111852      0.938241      3.328708
   H     -0.092895     -2.043909      4.822043
   H     -1.262945     -1.506910      3.566751
   H      0.447246     -1.697919      3.141258
