   14
 0165.xyz Energy 0.0672431
   C      0.468862      0.160116      1.367975
   C     -0.039377     -0.007033     -0.107151
   O     -0.811569      0.923282     -0.559980
   O      0.375950     -1.072679     -0.711187
   H      0.091945      1.089359      1.812415
   H      0.136201     -0.701650      1.965622
   H      1.568899      0.159598      1.375782
   C      0.012666      0.365752      4.771849
   C      0.003521     -0.032703      6.289543
   O      0.767338     -1.015487      6.632382
   O     -0.779670      0.675845      7.036220
   H      0.707486     -0.263798      4.202658
   H     -1.004076      0.263088      4.364194
   H      0.299454      1.423383      4.675341
