   14
 0166.xyz Energy 0.115774
   C      0.190461     -1.325022     -0.569970
   C     -0.018473      0.105550      0.039993
   O     -0.658687      0.956067     -0.690463
   O      0.482192      0.275148      1.220471
   H     -0.271003     -1.402381     -1.562015
   H      1.268189     -1.534340     -0.641896
   H     -0.245018     -2.075670      0.106070
   C     -1.334475      0.114433      5.308246
   C      0.104865     -0.002951      4.694435
   O      0.601909      1.071877      4.180127
   O      0.638084     -1.178816      4.771734
   H     -1.717968      1.138452      5.222201
   H     -2.008404     -0.581903      4.787265
   H     -1.304537     -0.187484      6.365646
