   14
 0167.xyz Energy 0.109214
   C     -0.955970      0.546524     -0.950924
   C      0.079592     -0.041749      0.070736
   O      1.298389     -0.149886     -0.341161
   O     -0.410495     -0.358268      1.225113
   H     -0.470583      0.806175     -1.899642
   H     -1.750577     -0.193546     -1.128075
   H     -1.429856      1.438622     -0.515336
   C     -1.116207      0.927463      5.583528
   C      0.087894     -0.073158      5.477966
   O      0.656072     -0.410814      6.587011
   O      0.381280     -0.450860      4.276208
   H     -1.318718      1.192516      6.628431
   H     -0.884879      1.834897      5.006003
   H     -2.009375      0.470415      5.132416
