   14
 0168.xyz Energy 0.0943437
   C      0.913362     -0.950952     -0.615047
   C     -0.068471      0.074398      0.053461
   O      0.110742      0.309146      1.310281
   O     -0.959917      0.574415     -0.739169
   H      1.649539     -1.321834      0.108539
   H      0.334832     -1.792616     -1.024181
   H      1.427236     -0.465694     -1.458019
   C     -0.489734      1.242827      4.843490
   C      0.039163     -0.094777      5.470645
   O      0.480992     -0.028677      6.681941
   O     -0.025783     -1.126455      4.693227
   H     -0.419425      2.069864      5.560535
   H      0.097460      1.477927      3.943258
   H     -1.534756      1.107956      4.527448
