   14
 0169.xyz Energy 0.0963916
   C      0.264752      1.256741      0.683617
   C     -0.021835     -0.095608     -0.058853
   O     -0.442085     -0.007252     -1.276393
   O      0.195970     -1.160869      0.641673
   H      0.074200      2.115117      0.027898
   H     -0.372663      1.321120      1.578068
   H      1.310570      1.269798      1.024555
   C     -1.145639      0.839134      5.256526
   C      0.087489     -0.070432      4.918400
   O      0.134832     -1.219361      5.505376
   O      0.930095      0.440083      4.080340
   H     -1.824152      0.339232      5.958527
   H     -0.789683      1.785349      5.690641
   H     -1.681303      1.085405      4.327786
