   14
 0170.xyz Energy 0.0995841
   C      0.773825      1.231896     -0.021230
   C     -0.060517     -0.096741      0.007771
   O     -0.218979     -0.653140      1.161950
   O     -0.499964     -0.491719     -1.142809
   H      1.100491      1.514929      0.986872
   H      1.649509      1.095638     -0.673224
   H      0.162327      2.035780     -0.457102
   C      0.485454     -1.251308      6.181593
   C     -0.040372      0.099796      5.581368
   O     -0.763323      0.833849      6.359396
   O      0.312252      0.328712      4.358171
   H      0.162723     -1.372753      7.222834
   H      0.109884     -2.088144      5.574026
   H      1.583843     -1.271521      6.124349
