   14
 0176.xyz Energy 0.0927598
   C      1.316703      0.571282     -0.238229
   C     -0.101565     -0.046670      0.024247
   O     -0.243759     -0.721018      1.115969
   O     -0.979917      0.190147     -0.895194
   H      2.004496      0.344958      0.585667
   H      1.717947      0.169982     -1.180804
   H      1.221924      1.660526     -0.359510
   C      1.323269      0.304031      6.742827
   C     -0.101764     -0.023256      6.173259
   O     -0.252464      0.090558      4.896092
   O     -0.977450     -0.372950      7.058609
   H      2.016783      0.577194      5.938149
   H      1.243923      1.130815      7.464365
   H      1.706806     -0.571199      7.287818
