   14
 0186.xyz Energy 0.110789
   C     -1.161132      0.861582      0.162083
   C      0.093850     -0.064884     -0.007984
   O      1.109327      0.195592      0.745526
   O     -0.030503     -0.996360     -0.896717
   H     -0.992084      1.616332      0.939812
   H     -1.379499      1.355368     -0.796550
   H     -2.035320      0.245788      0.420421
   C      0.245247     -1.382952      4.259633
   C     -0.025110      0.107221      3.849105
   O     -1.197706      0.372032      3.378240
   O      0.970409      0.913181      4.028898
   H     -0.643115     -2.004994      4.095424
   H      1.088802     -1.773531      3.671119
   H      0.539162     -1.420622      5.319037
