   14
 0189.xyz Energy 0.0943927
   C     -1.864000     -0.383000      0.652000
   C     -3.310000     -0.490000      1.074000
   O     -4.032000     -1.197000      0.242000
   O     -3.814000      0.215000      1.926000
   H     -1.779000      0.174000     -0.284000
   H     -1.277000      0.128000      1.418000
   H     -1.437000     -1.376000      0.497000
   C      3.133400     -0.439800      0.317800
   C      1.637400     -0.354800      0.505800
   O      1.013400      0.338200     -0.272200
   O      1.149400     -0.998800      1.410800
   H      3.518400      0.490200     -0.108200
   H      3.629400     -0.613800      1.274800
   H      3.376400     -1.261800     -0.358200
