   14
 0190.xyz Energy 0.0857574
   C      0.618660     -1.316841     -0.003750
   C     -0.046621      0.104300     -0.005422
   O      0.179282      0.845605     -1.038018
   O     -0.754199      0.378079      1.042116
   H      1.188733     -1.486877     -0.925266
   H      1.283543     -1.404586      0.868440
   H     -0.162781     -2.083981      0.101074
   C      0.937390     -0.038652      4.107962
   C     -0.075121      0.008754      5.305800
   O     -0.645468      1.144247      5.534231
   O     -0.225327     -1.108804      5.939407
   H      1.003619      0.935544      3.608320
   H      1.928577     -0.334379      4.482901
   H      0.615530     -0.807511      3.390044
