   14
 0191.xyz Energy 0.117232
   C     -1.864000     -0.383000      0.652000
   C     -3.310000     -0.490000      1.074000
   O     -4.032000     -1.197000      0.242000
   O     -3.814000      0.215000      1.926000
   H     -1.779000      0.174000     -0.284000
   H     -1.277000      0.128000      1.418000
   H     -1.437000     -1.376000      0.497000
   C      2.594200     -0.189400      0.319400
   C      1.098200     -0.104400      0.507400
   O      0.474200      0.588600     -0.270600
   O      0.610200     -0.748400      1.412400
   H      2.979200      0.740600     -0.106600
   H      3.090200     -0.363400      1.276400
   H      2.837200     -1.011400     -0.356600
