   14
 0192.xyz Energy 0.0906821
   C      1.291523     -0.518735      0.423917
   C     -0.102419      0.035581     -0.036412
   O     -0.753329     -0.679290     -0.892038
   O     -0.446656      1.161901      0.498246
   H      1.511721     -1.480417     -0.055425
   H      2.073674      0.212536      0.170995
   H      1.293124     -0.635549      1.517761
   C     -0.389366     -0.850882      6.814099
   C      0.029436      0.071749      5.615934
   O     -0.145281      1.340772      5.776790
   O      0.507025     -0.550546      4.587530
   H     -0.769915     -0.257839      7.654675
   H     -1.162029     -1.556856      6.474868
   H      0.478735     -1.444747      7.136388
