   14
 0193.xyz Energy 0.353059
   C     -1.864000     -0.383000      0.652000
   C     -3.310000     -0.490000      1.074000
   O     -4.032000     -1.197000      0.242000
   O     -3.814000      0.215000      1.926000
   H     -1.779000      0.174000     -0.284000
   H     -1.277000      0.128000      1.418000
   H     -1.437000     -1.376000      0.497000
   C      1.785400      0.186200      0.321800
   C      0.289400      0.271200      0.509800
   O     -0.334600      0.964200     -0.268200
   O     -0.198600     -0.372800      1.414800
   H      2.170400      1.116200     -0.104200
   H      2.281400      0.012200      1.278800
   H      2.028400     -0.635800     -0.354200
