   12
 0002.xyz Energy 0.0903789
   N     -0.976414      0.382932     -0.674471
   C     -0.123992     -0.530840      0.164813
   H     -1.862588     -0.081320     -0.935613
   H     -0.482794      0.647968     -1.543271
   H     -1.205674      1.247579     -0.156240
   H      0.052075     -1.433166     -0.428802
   H     -0.716973     -0.794871      1.045847
   C      1.223529      0.065822      0.609275
   H      1.835771      0.328137     -0.257011
   H      1.777016     -0.658732      1.211716
   H      1.069603      0.964253      1.211969
   K      0.000000      0.000000      5.180000
