   12
 0004.xyz Energy 0.0922844
   N      0.525821      0.457548      1.033970
   C      0.229400     -0.515764     -0.075443
   H      1.230927      0.068865      1.682645
   H     -0.329748      0.666927      1.575154
   H      0.892845      1.345728      0.652961
   H     -0.121692     -1.437846      0.397918
   H      1.178510     -0.715318     -0.582323
   C     -0.812058     -0.032953     -1.100931
   H     -1.771371      0.163409     -0.615894
   H     -0.967349     -0.794890     -1.868784
   H     -0.476123      0.883440     -1.592339
   K      0.000000      0.000000      6.400000
