   12
 0009.xyz Energy 0.0989867
   N     -0.006974      0.814067      0.944552
   C     -0.332017      0.227266     -0.403043
   H     -0.477280      1.726385      1.069120
   H      1.011636      0.959944      1.043904
   H     -0.318840      0.184149      1.702629
   H     -0.006383      0.955484     -1.152197
   H     -1.421015      0.130576     -0.450922
   C      0.320586     -1.136732     -0.691113
   H      1.410105     -1.059918     -0.657235
   H      0.033973     -1.490185     -1.684686
   H      0.000933     -1.881747      0.041612
   K      0.000000      0.000000      5.900000
