   12
 0010.xyz Energy 0.0732194
   N      0.478479      0.185735     -1.136438
   C     -0.103588      0.518605      0.211299
   H      0.682559      1.047800     -1.669564
   H     -0.181904     -0.386519     -1.688831
   H      1.359075     -0.345921     -1.033329
   H     -1.009396      1.104917      0.028760
   H      0.629676      1.147706      0.725220
   C     -0.444835     -0.698891      1.089150
   H     -1.183729     -1.336303      0.597378
   H     -0.859584     -0.370582      2.045423
   H      0.449234     -1.293859      1.291054
   K      0.000000      0.000000      6.500000
