   12
 0012.xyz Energy 0.0846306
   N     -0.423910     -0.749620      0.901832
   C     -0.439104      0.332729     -0.144251
   H     -1.348403     -0.830493      1.357685
   H      0.278681     -0.543190      1.631539
   H     -0.191686     -1.663881      0.478823
   H     -0.721754      1.259884      0.363747
   H     -1.221757      0.067463     -0.861641
   C      0.894003      0.536383     -0.886354
   H      1.688181      0.811472     -0.187993
   H      0.796747      1.335950     -1.624931
   H      1.190201     -0.376630     -1.408643
   K      0.000000      0.000000      6.800000
