   12
 0017.xyz Energy 0.0950908
   N      0.811301      0.882405      0.343631
   C     -0.128495      0.110715     -0.543654
   H      1.223167      1.681401     -0.167253
   H      1.582556      0.277916      0.672990
   H      0.313253      1.250825      1.171249
   H      0.453460     -0.219847     -1.409464
   H     -0.895966      0.815072     -0.878959
   C     -0.798573     -1.104474      0.122438
   H     -0.048688     -1.825598      0.456731
   H     -1.461979     -1.605724     -0.586719
   H     -1.392921     -0.794563      0.985466
   K      0.000000      0.000000      5.540000
