   12
 0020.xyz Energy 0.0713642
   N      1.085975      0.362970     -0.493803
   C      0.126661     -0.215606      0.511664
   H      2.055798      0.325664     -0.137319
   H      0.853861      1.350104     -0.694822
   H      1.048026     -0.165344     -1.381600
   H      0.242106      0.366950      1.430832
   H      0.448922     -1.244348      0.699810
   C     -1.350218     -0.208359      0.077910
   H     -1.694995      0.812081     -0.106299
   H     -1.975890     -0.644028      0.860845
   H     -1.488933     -0.793034     -0.834792
   K      0.000000      0.000000      6.960000
