   12
 0022.xyz Energy 0.115314
   N     -0.328815     -0.004283      1.202827
   C     -0.482152      0.080183     -0.292282
   H     -1.244218      0.104832      1.670972
   H      0.300990      0.739078      1.548485
   H      0.067771     -0.918237      1.478771
   H     -0.933872      1.052952     -0.509631
   H     -1.181599     -0.709628     -0.583025
   C      0.826747     -0.070619     -1.088152
   H      1.536665      0.715306     -0.819011
   H      0.627360      0.001901     -2.160182
   H      1.290033     -1.040658     -0.891935
   K      0.000000      0.000000      5.360000
