   12
 0024.xyz Energy 0.0903614
   N      0.650759     -0.290061      1.023381
   C     -0.504855      0.187470      0.185217
   H      0.418261     -0.239150      2.029552
   H      1.488885      0.291549      0.856070
   H      0.886944     -1.270503      0.796031
   H     -0.720554      1.213488      0.498794
   H     -1.359990     -0.447993      0.435194
   C     -0.262203      0.152275     -1.334404
   H      0.583261      0.788798     -1.606669
   H     -1.146135      0.512678     -1.866415
   H     -0.053527     -0.866509     -1.670030
   K      0.000000      0.000000      6.560000
