   12
 0025.xyz Energy 0.0733964
   N     -0.269459     -0.691341     -1.002183
   C     -0.483815      0.266073      0.139486
   H     -1.143848     -0.822937     -1.538052
   H      0.036766     -1.614762     -0.652556
   H      0.454194     -0.334008     -1.648230
   H     -1.279316     -0.155936      0.761304
   H     -0.835073      1.205594     -0.298097
   C      0.761021      0.533045      1.004631
   H      1.122852     -0.392510      1.459082
   H      0.520156      1.235593      1.806299
   H      1.565585      0.963737      0.403556
   K      0.000000      0.000000      6.500000
