   12
 0026.xyz Energy 0.0746709
   N     -1.174525     -0.185184     -0.375672
   C     -0.034541      0.341715      0.454276
   H     -2.079883      0.158504     -0.013411
   H     -1.191802     -1.218697     -0.359198
   H     -1.083232      0.121024     -1.358851
   H     -0.211135      0.009339      1.481851
   H     -0.096118      1.433716      0.418194
   C      1.363835     -0.111910     -0.001943
   H      1.449466     -1.200651      0.035614
   H      2.130386      0.313557      0.650467
   H      1.563981      0.218212     -1.024231
   K      0.000000      0.000000      6.680000
