   12
 0028.xyz Energy 0.087502
   N     -0.655558     -0.103170     -1.055713
   C      0.043508     -0.528449      0.207791
   H     -1.073004     -0.918770     -1.534843
   H      0.008383      0.348502     -1.706784
   H     -1.411763      0.569975     -0.846504
   H      0.804166     -1.259806     -0.082187
   H     -0.706422     -1.023850      0.832085
   C      0.702126      0.614569      1.000948
   H      1.462012      1.117229      0.397620
   H      1.184416      0.221726      1.899464
   H     -0.042941      1.352489      1.308293
   K      0.000000      0.000000      5.260000
