   12
 0031.xyz Energy 0.0834987
   N      0.081433      0.996117     -0.745687
   C     -0.134405      0.202434      0.515058
   H     -0.047355      2.006529     -0.568171
   H     -0.589483      0.709093     -1.477949
   H      1.038320      0.851840     -1.109404
   H     -1.148529      0.426139      0.860137
   H      0.582746      0.578170      1.251317
   C      0.034231     -1.319719      0.360200
   H     -0.680149     -1.716953     -0.365036
   H     -0.138134     -1.818077      1.317379
   H      1.044654     -1.565505      0.024422
   K      0.000000      0.000000      5.720000
