   12
 0032.xyz Energy 0.0728124
   N     -0.461474      0.505788     -1.042186
   C      0.048589      0.428486      0.371978
   H     -0.730022      1.475137     -1.281506
   H     -1.291098     -0.098596     -1.165325
   H      0.264859      0.197929     -1.710318
   H     -0.753883      0.796882      1.018425
   H      0.900603      1.112052      0.438088
   C      0.477288     -0.976809      0.831032
   H     -0.362866     -1.673784      0.781381
   H      0.833491     -0.944462      1.863667
   H      1.285330     -1.359931      0.203021
   K      0.000000      0.000000      6.580000
