   12
 0033.xyz Energy 0.0655354
   N      0.289000     -0.065905     -1.211225
   C      0.470206     -0.156920      0.280378
   H      1.158573     -0.333919     -1.702182
   H      0.044226      0.898514     -1.491762
   H     -0.467142     -0.696230     -1.526944
   H      1.301338      0.506234      0.539255
   H      0.757212     -1.189619      0.501102
   C     -0.770352      0.222503      1.108884
   H     -1.068385      1.254808      0.909831
   H     -0.554700      0.129150      2.176143
   H     -1.610617     -0.434594      0.871632
   K      0.000000      0.000000      7.360000
