   12
 0034.xyz Energy 0.0649212
   N      0.406892      0.344691     -1.127190
   C      0.314896      0.291562      0.374380
   H      1.144995      1.004586     -1.425135
   H     -0.489286      0.656186     -1.537744
   H      0.632604     -0.587476     -1.513010
   H      0.107466      1.310644      0.714991
   H      1.300450     -0.012075      0.740507
   C     -0.757763     -0.665238      0.925110
   H     -1.752103     -0.373571      0.578241
   H     -0.757520     -0.644131      2.017728
   H     -0.563709     -1.691388      0.603441
   K      0.000000      0.000000      7.460000
