   12
 0000.xyz Energy -0.116838
   N     -0.550585     -1.080554     -0.290154
   C     -0.271685      0.398654     -0.302640
   H     -1.332869     -1.310478     -0.925918
   H     -0.804023     -1.396955      0.660834
   H      0.281311     -1.612203     -0.596808
   H     -1.197670      0.897850     -0.001100
   H     -0.043430      0.668149     -1.338416
   C      0.879901      0.849395      0.613903
   H      0.667251      0.597535      1.655751
   H      1.015821      1.931550      0.545153
   H      1.817204      0.368475      0.323573
  Br      0.000000      0.000000      4.520000
