   12
 0001.xyz Energy -0.100807
   N      0.430138      0.281571     -1.136059
   C     -0.478191      0.302567      0.064148
   H      0.074106      0.910971     -1.875062
   H      0.495430     -0.672523     -1.528692
   H      1.382435      0.591488     -0.879505
   H     -1.469666     -0.003020     -0.283940
   H     -0.525763      1.341065      0.405935
   C     -0.037270     -0.604105      1.227290
   H      0.007730     -1.648490      0.908957
   H     -0.747620     -0.529594      2.054401
   H      0.948284     -0.309569      1.596129
  Br      0.000000      0.000000      4.980000
