   12
 0004.xyz Energy -0.145775
   N     -0.199560     -0.672364      1.031035
   C     -0.395270      0.409975      0.003301
   H     -0.898982     -0.588644      1.787889
   H      0.741935     -0.609764      1.453395
   H     -0.299608     -1.607250      0.601247
   H     -0.308836      1.365527      0.529627
   H     -1.416217      0.304094     -0.376194
   C      0.598439      0.376072     -1.171757
   H      1.624900      0.489774     -0.814618
   H      0.387170      1.190944     -1.868615
   H      0.521832     -0.567858     -1.716954
  Br      0.000000      0.000000      4.660000
