   12
 0005.xyz Energy -0.142634
   N     -1.216499     -0.237942      0.135810
   C      0.032599      0.532938     -0.198099
   H     -2.058432      0.335038     -0.042716
   H     -1.220035     -0.515035      1.131765
   H     -1.281829     -1.095060     -0.438489
   H      0.020816      1.437040      0.418367
   H     -0.045422      0.819631     -1.251323
   C      1.348191     -0.232142      0.032639
   H      1.450168     -0.520004      1.081846
   H      2.201966      0.395901     -0.233615
   H      1.384084     -1.135304     -0.581462
  Br      0.000000      0.000000      3.960000
