   12
 0007.xyz Energy -0.122999
   N     -0.070695      1.049636     -0.669475
   C      0.007028      0.164057      0.545312
   H     -0.112336      2.045329     -0.393990
   H     -0.914393      0.833392     -1.226368
   H      0.758003      0.916242     -1.272968
   H     -0.878696      0.379155      1.150949
   H      0.899815      0.467543      1.100637
   C      0.073480     -1.344242      0.245333
   H     -0.814675     -1.670070     -0.301583
   H      0.128224     -1.912546      1.177156
   H      0.957122     -1.582007     -0.351958
  Br      0.000000      0.000000      4.060000
