   12
 0008.xyz Energy -0.141031
   N      0.024493      0.366866      1.191529
   C      0.471757     -0.309679     -0.076636
   H      0.703324      0.200775      1.953521
   H     -0.895346      0.005013      1.494312
   H     -0.059830      1.387642      1.051373
   H      0.570843     -1.375434      0.151219
   H      1.458981      0.095375     -0.319285
   C     -0.472025     -0.124247     -1.278408
   H     -1.462350     -0.531151     -1.059808
   H     -0.075072     -0.643874     -2.154010
   H     -0.577738      0.934255     -1.528427
  Br      0.000000      0.000000      4.980000
