   12
 0009.xyz Energy -0.148187
   N     -0.488658     -0.755103      0.863692
   C     -0.064193     -0.270734     -0.496902
   H     -0.935047     -1.685381      0.797744
   H     -1.166809     -0.101287      1.289548
   H      0.326270     -0.832321      1.495093
   H     -0.964550     -0.243865     -1.118356
   H      0.623156     -1.021365     -0.898975
   C      0.614308      1.110861     -0.511065
   H     -0.059746      1.877624     -0.121417
   H      0.890131      1.385669     -1.532174
   H      1.521964      1.103107      0.097385
  Br      0.000000      0.000000      4.360000
