   12
 0010.xyz Energy -0.119652
   N     -0.373372      0.795815     -0.884422
   C     -0.355186      0.077541      0.438359
   H     -1.143341      1.485168     -0.915569
   H     -0.507026      0.127485     -1.661719
   H      0.516397      1.298712     -1.039806
   H     -1.332167     -0.402368      0.551343
   H     -0.243622      0.843452      1.211983
   C      0.757665     -0.975090      0.589675
   H      0.658786     -1.755345     -0.168959
   H      0.700198     -1.446584      1.573876
   H      1.743335     -0.514198      0.488963
  Br      0.000000      0.000000      4.180000
