   12
 0012.xyz Energy -0.150216
   N     -0.354501      0.540757      1.066228
   C     -0.292705      0.262669     -0.411895
   H     -1.023295      1.303237      1.267145
   H      0.573346      0.822689      1.424462
   H     -0.659134     -0.300436      1.584233
   H      0.002523      1.197730     -0.897767
   H     -1.308068      0.003303     -0.727058
   C      0.677483     -0.860270     -0.820686
   H      1.700167     -0.616306     -0.522860
   H      0.661097     -0.997435     -1.904742
   H      0.394605     -1.806291     -0.352566
  Br      0.000000      0.000000      4.500000
