   12
 0013.xyz Energy -0.142511
   N      0.690994      0.008615      1.037971
   C      0.034749      0.526698     -0.213800
   H      1.243772      0.752809      1.495837
   H      1.326278     -0.777148      0.819551
   H     -0.018489     -0.326700      1.710976
   H      0.836111      0.892482     -0.863100
   H     -0.593763      1.371058      0.085515
   C     -0.815928     -0.505757     -0.975215
   H     -0.204210     -1.354148     -1.291651
   H     -1.254749     -0.050050     -1.866299
   H     -1.628658     -0.877577     -0.346461
  Br      0.000000      0.000000      4.760000
