   12
 0014.xyz Energy -0.150003
   N     -0.721627      0.531388      0.867071
   C      0.500108      0.271086      0.027068
   H     -0.547550      1.298951      1.537573
   H     -0.983182     -0.312641      1.403654
   H     -1.524201      0.798148      0.272553
   H      1.313161      0.027660      0.717908
   H      0.737067      1.208927     -0.484660
   C      0.347023     -0.857622     -1.008282
   H      0.118957     -1.806371     -0.516386
   H      1.274442     -0.980216     -1.573196
   H     -0.455203     -0.629625     -1.714370
  Br      0.000000      0.000000      4.340000
