   12
 0015.xyz Energy -0.103394
   N      0.625912     -0.443254     -0.983205
   C     -0.135070      0.537376     -0.131576
   H      0.893453     -0.013796     -1.884879
   H      0.050406     -1.278732     -1.181922
   H      1.488578     -0.751392     -0.504044
   H     -1.012423      0.844064     -0.709298
   H      0.517404      1.404219      0.011326
   C     -0.582300     -0.003625      1.238340
   H     -1.243276     -0.865393      1.117650
   H     -1.124680      0.768001      1.790318
   H      0.280876     -0.307584      1.835539
  Br      0.000000      0.000000      4.800000
