   12
 0016.xyz Energy -0.13064
   N      1.238392     -0.038223      0.140908
   C     -0.212602      0.090036      0.520598
   H      1.844115      0.059930      0.973071
   H      1.504349      0.692955     -0.539800
   H      1.424425     -0.960952     -0.286528
   H     -0.330651      1.070014      0.993120
   H     -0.414958     -0.688965      1.262063
   C     -1.203498     -0.041426     -0.649961
   H     -1.024193      0.734286     -1.398440
   H     -2.229859      0.062751     -0.289417
   H     -1.108017     -1.018096     -1.130699
  Br      0.000000      0.000000      4.220000
