   12
 0017.xyz Energy -0.0958394
   N      0.084740      0.059281     -1.242673
   C      0.419830      0.328791      0.199921
   H      0.734791      0.563081     -1.869288
   H     -0.877369      0.369665     -1.458838
   H      0.153177     -0.950890     -1.451503
   H      0.359691      1.412234      0.341711
   H      1.455309      0.007593      0.348832
   C     -0.491418     -0.376784      1.220293
   H     -1.530355     -0.062325      1.094491
   H     -0.180750     -0.129480      2.238422
   H     -0.439022     -1.461789      1.101424
  Br      0.000000      0.000000      5.360000
