   12
 0020.xyz Energy -0.137121
   N     -0.528241     -0.686410      0.897070
   C      0.398811     -0.331947     -0.234712
   H     -0.354882     -1.652250      1.222844
   H     -1.515016     -0.619620      0.596184
   H     -0.390142     -0.046396      1.697101
   H      0.223052     -1.064045     -1.028886
   H      1.418756     -0.454421      0.142479
   C      0.223179      1.090615     -0.795817
   H     -0.787569      1.230953     -1.186707
   H      0.931302      1.265692     -1.609556
   H      0.403439      1.838357     -0.019609
  Br      0.000000      0.000000      4.800000
