   12
 0022.xyz Energy -0.150918
   N     -0.527146      0.001159      1.130065
   C     -0.425163     -0.084512     -0.369354
   H     -1.507392     -0.116487      1.437156
   H     -0.191176      0.918686      1.467687
   H      0.042042     -0.736416      1.578113
   H     -1.072789      0.698374     -0.775851
   H     -0.824604     -1.061704     -0.657632
   C      0.997878      0.078303     -0.933104
   H      1.412164      1.052987     -0.663922
   H      0.983130      0.002861     -2.023219
   H      1.659539     -0.700421     -0.545931
  Br      0.000000      0.000000      4.540000
