   12
 0023.xyz Energy -0.118567
   N     -0.101737      1.241585     -0.055197
   C      0.294187     -0.110524      0.474939
   H      0.236257      1.992654      0.569851
   H     -1.130095      1.319653     -0.126634
   H      0.300438      1.398230     -0.994588
   H     -0.135398     -0.195427      1.477844
   H      1.385632     -0.111263      0.554356
   C     -0.161742     -1.303246     -0.384659
   H     -1.250992     -1.326230     -0.468949
   H      0.165517     -2.242294      0.068499
   H      0.264183     -1.242257     -1.389139
  Br      0.000000      0.000000      4.580000
