   12
 0025.xyz Energy -0.150169
   N     -0.004707      0.571781      1.108141
   C     -0.085426      0.409684     -0.386252
   H     -0.127914      1.562909      1.375562
   H      0.913392      0.253999      1.461450
   H     -0.740907      0.017334      1.576474
   H      0.695589      1.044382     -0.816070
   H     -1.063637      0.792564     -0.692955
   C      0.085813     -1.033894     -0.892341
   H      1.061643     -1.432382     -0.604134
   H      0.013550     -1.062987     -1.982383
   H     -0.690917     -1.683367     -0.481260
  Br      0.000000      0.000000      4.540000
