   12
 0029.xyz Energy -0.139863
   N      0.826910      0.517649      0.776653
   C      0.267750     -0.051042     -0.500034
   H      1.805328      0.823922      0.642774
   H      0.810541     -0.189859      1.530233
   H      0.273057      1.333510      1.087062
   H      0.916626     -0.884523     -0.786107
   H      0.345124      0.735792     -1.256649
   C     -1.189418     -0.538715     -0.409445
   H     -1.286823     -1.332471      0.335244
   H     -1.516030     -0.934012     -1.374498
   H     -1.856215      0.281788     -0.133281
  Br      0.000000      0.000000      4.540000
