   12
 0037.xyz Energy -0.17932
   N      0.637000      0.656000      0.812000
   C      0.300000     -0.111000     -0.387000
   H      1.625000      0.910000      0.902000
   H      0.502000      0.071000      1.688000
   H      0.058000      1.478000      1.004000
   H      0.938000     -0.999000     -0.399000
   H      0.538000      0.519000     -1.248000
   C     -1.167000     -0.478000     -0.366000
   H     -1.406000     -1.116000      0.492000
   H     -1.432000     -1.027000     -1.275000
   H     -1.799000      0.415000     -0.313000
  Br      0.604000     -0.566500      3.580100
