   11
 0000.xyz Energy 0.119377
   O     -0.125864      0.039834      1.152382
   O     -0.224801     -0.000237     -1.137932
   C      0.343135     -0.038746     -0.014147
   H      1.477473     -0.166833     -0.060807
   C     -0.707602      1.229778      4.197869
   C      0.056617     -0.097477      4.539347
   O      0.432485     -0.820504      3.537961
   O      0.224794     -0.322297      5.801935
   H     -0.800652      1.363790      3.113217
   H     -1.706645      1.201205      4.657849
   H     -0.168850      2.082691      4.636538
