   11
 0002.xyz Energy 0.108159
   O      0.070762      0.013610     -1.157679
   O     -0.233188      0.294186      1.097498
   C      0.158937     -0.301186      0.058896
   H      0.684366     -1.296860      0.253487
   C      0.923493     -0.675071      6.359034
   C     -0.073287      0.057416      5.393564
   O     -0.678720      1.094320      5.868013
   O     -0.179525     -0.467521      4.216232
   H      0.975294     -0.169183      7.330878
   H      0.595354     -1.716144      6.496791
   H      1.921594     -0.704157      5.897414
