   11
 0003.xyz Energy 0.0755008
   O     -0.085001     -0.441444      1.069259
   O     -0.248479      0.326182     -1.085029
   C      0.326318      0.112789      0.015425
   H      1.405068      0.485611      0.066516
   C      0.822498     -0.126855      5.006590
   C     -0.062039      0.015397      6.294845
   O      0.177345      1.035567      7.049012
   O     -0.941763     -0.918291      6.459979
   H      1.533521      0.704062      4.922261
   H      1.367023     -1.082119      5.044664
   H      0.171774     -0.155393      4.120087
