   11
 0004.xyz Energy 0.10083
   O      0.026403     -0.027530     -1.159292
   O     -0.245760     -0.244290      1.106954
   C      0.214646      0.265982      0.051220
   H      0.924234      1.145276      0.220439
   C      0.389272      1.342152      4.655131
   C     -0.027324     -0.107692      5.087155
   O      0.330851     -1.068517      4.302715
   O     -0.693054     -0.178465      6.193839
   H      0.961787      1.326096      3.719687
   H     -0.514720      1.956539      4.529386
   H      0.989367      1.801434      5.454562
