   11
 0005.xyz Energy 0.117018
   O      0.039351     -0.392239     -1.090877
   O      0.234679      0.171725      1.122880
   C     -0.268145      0.215780     -0.031309
   H     -1.154585      0.929080     -0.134915
   C     -0.621522      1.015977      6.035658
   C      0.048168     -0.076124      5.129527
   O      0.066322      0.159495      3.860286
   O      0.511119     -1.104031      5.763594
   H     -0.976672      1.862913      5.435946
   H     -1.463615      0.566317      6.582624
   H      0.106399      1.364513      6.783185
