   11
 0006.xyz Energy 0.111794
   O     -0.123451      0.126501     -1.146373
   O     -0.171020      0.068507      1.145200
   C      0.288147     -0.190821      0.001155
   H      1.240705     -0.821635      0.004864
   C      1.207062      0.788310      4.875943
   C     -0.092569     -0.066164      4.668388
   O     -0.103511     -1.239422      5.207057
   O     -1.018292      0.507189      3.970349
   H      1.940689      0.248816      5.487354
   H      1.643028      1.028842      3.894840
   H      0.942865      1.740310      5.359718
