   11
 0007.xyz Energy 0.11924
   O      1.079592     -0.019476      0.423691
   O     -0.965726     -0.275952     -0.580214
   C     -0.111427      0.289084      0.153158
   H     -0.479688      1.244747      0.659515
   C     -1.260440      0.716033      3.944142
   C      0.101277     -0.052893      3.814824
   O      1.075801      0.372936      4.546803
   O      0.095323     -1.038502      2.977272
   H     -1.187874      1.526299      4.679867
   H     -1.539221      1.126789      2.962284
   H     -2.050093      0.009749      4.240375
