   11
 0008.xyz Energy 0.0805731
   O      0.936478      0.464938     -0.502249
   O     -1.098195     -0.229542      0.294453
   C      0.158238     -0.230343      0.203337
   H      0.681435     -0.991778      0.875488
   C      1.037476      0.088049      4.383775
   C     -0.078375     -0.011430      5.482512
   O      0.031741     -0.978812      6.330371
   O     -0.996219      0.897289      5.413601
   H      1.788326     -0.701310      4.511146
   H      0.574672      0.006438      3.388969
   H      1.517940      1.075935      4.441921
