   11
 0009.xyz Energy 0.0848776
   O      0.331597      0.573197     -0.952314
   O     -0.188062     -0.290091      1.107206
   C     -0.140454     -0.277030     -0.151559
   H     -0.604743     -1.192792     -0.652680
   C     -0.330966     -1.246944      5.347382
   C      0.026409      0.100689      6.067390
   O      0.355449      1.091038      5.307285
   O     -0.047743      0.067391      7.358261
   H     -0.262305     -1.142539      4.257670
   H      0.355889     -2.034648      5.691240
   H     -1.348831     -1.552288      5.631739
