   11
 0012.xyz Energy 0.110144
   O     -0.118773     -0.042046      1.153056
   O     -0.219939      0.139513     -1.130304
   C      0.331438     -0.095373     -0.022270
   H      1.427108     -0.410665     -0.095785
   C      0.888411     -0.505342      6.435461
   C     -0.074504      0.039010      5.322483
   O     -1.338243      0.000220      5.583784
   O      0.513100      0.469255      4.253574
   H      0.325595     -0.838042      7.316163
   H      1.475346     -1.342473      6.029008
   H      1.598408      0.285134      6.720409
