   11
 0013.xyz Energy 0.100255
   O     -0.317233     -0.182130     -1.100729
   O      0.053265     -0.045479      1.157808
   C      0.258300      0.222722     -0.055846
   H      1.112171      0.958989     -0.240567
   C     -0.649806      1.211446      4.683582
   C      0.051748     -0.092539      5.202896
   O      0.554442     -0.042889      6.391027
   O      0.049505     -1.083038      4.371113
   H     -0.624398      2.002515      5.442957
   H     -0.144127      1.555204      3.768921
   H     -1.691729      0.981712      4.415697
