   11
 0015.xyz Energy 0.115176
   O      0.256651     -0.107212      1.126077
   O     -0.572514      0.001306     -1.008786
   C      0.309078      0.103632     -0.114778
   H      1.330866      0.446214     -0.494112
   C     -0.565529      1.314455      5.383076
   C      0.043474     -0.104747      5.105182
   O      0.203192     -0.874392      6.129368
   O      0.322601     -0.346869      3.865657
   H     -0.791409      1.445340      6.448408
   H      0.147625      2.085307      5.054923
   H     -1.481547      1.440083      4.787029
