   11
 0016.xyz Energy 0.12997
   O      0.465227     -0.016236     -1.062409
   O     -0.196035     -0.203690      1.124946
   C     -0.263413      0.215203     -0.061188
   H     -1.134172      0.926630     -0.263565
   C     -0.046895      0.798043      5.675628
   C      0.009732     -0.061855      4.364288
   O      1.151807     -0.126119      3.765661
   O     -1.108831     -0.615387      4.024617
   H      0.936227      1.223413      5.911463
   H     -0.782585      1.606029      5.547550
   H     -0.392986      0.168387      6.508634
