   11
 0017.xyz Energy 0.108722
   O      0.802034      0.317384      0.775514
   O     -0.519392     -0.465704     -0.926702
   C     -0.276576      0.145132      0.147936
   H     -1.190820      0.624946      0.637062
   C      1.135342     -0.890107      4.331498
   C     -0.088169      0.069812      4.540831
   O     -0.428618      0.312214      5.762369
   O     -0.626626      0.514781      3.452243
   H      1.550562     -1.215784      5.293066
   H      0.813371     -1.765449      3.747892
   H      1.908306     -0.371392      3.745320
