   11
 0018.xyz Energy 0.109369
   O     -0.057074      0.966144     -0.639313
   O      0.353743     -1.007847      0.452254
   C     -0.290297      0.040802      0.183046
   H     -1.249979      0.175777      0.788106
   C     -1.339893     -0.055590      5.364286
   C      0.107538      0.004667      4.761331
   O      1.072025      0.205122      5.595839
   O      0.172857     -0.153297      3.479248
   H     -1.319211      0.070140      6.453713
   H     -1.955344      0.734410      4.908649
   H     -1.801248     -1.020404      5.106549
