   11
 0019.xyz Energy 0.0811975
   O     -0.902678     -0.683197     -0.252640
   O      1.037062      0.374689      0.359908
   C     -0.131493      0.301887     -0.104963
   H     -0.566271      1.299812     -0.451976
   C     -0.643764     -0.330514      4.277799
   C      0.055352      0.028157      5.636046
   O      1.268120      0.464785      5.562764
   O     -0.670267     -0.158038      6.690448
   H      0.021179     -0.134526      3.427783
   H     -0.933396     -1.391873      4.288603
   H     -1.566263      0.260163      4.176612
