   11
 0022.xyz Energy 0.0870814
   O      0.073221     -0.381322     -1.092999
   O     -0.405355      0.445340      0.991354
   C      0.325000     -0.062641      0.099467
   H      1.399408     -0.269758      0.428189
   C      0.767592      0.860176      4.292462
   C     -0.056951     -0.072334      5.247867
   O      0.184007     -1.338154      5.167510
   O     -0.897747      0.539246      6.017275
   H      1.469145      0.278588      3.681999
   H      0.075510      1.414027      3.640728
   H      1.316850      1.600884      4.892304
