   11
 0024.xyz Energy 0.0953063
   O     -0.286648      0.734845      0.850441
   O     -0.034731     -0.643140     -0.964670
   C      0.314479     -0.089740      0.111772
   H      1.354068     -0.386338      0.481351
   C      0.058559     -1.448009      5.470906
   C     -0.005111      0.114187      5.604069
   O     -0.003848      0.787414      4.502441
   O     -0.050324      0.558129      6.818082
   H      0.079154     -1.753868      4.417762
   H      0.957489     -1.819130      5.985376
   H     -0.813638     -1.891600      5.973542
