   11
 0026.xyz Energy 0.0812973
   O     -0.163753     -0.085535      1.145112
   O     -0.184437      0.026321     -1.144864
   C      0.340713      0.057943     -0.000249
   H      1.467042      0.249485     -0.000966
   C     -0.110267     -0.661750      4.388973
   C      0.002657      0.053099      5.781266
   O     -1.063037      0.636381      6.218186
   O      1.166108     -0.021377      6.341437
   H     -1.124238     -0.572226      3.980397
   H      0.614146     -0.214321      3.692181
   H      0.156267     -1.722986      4.502465
