   11
 0027.xyz Energy 0.107459
   O     -0.145847     -0.383977      1.084760
   O      0.429167      0.174171     -1.063440
   C     -0.277234      0.205302     -0.020868
   H     -1.193739      0.883962     -0.089755
   C     -1.107178     -0.331169      6.303916
   C      0.082974      0.028247      5.346523
   O     -0.232394      0.472856      4.176187
   O      1.261616     -0.165504      5.842726
   H     -2.073348     -0.128576      5.825837
   H     -1.042243     -1.394391      6.579282
   H     -1.017289      0.253847      7.231181
