   11
 0028.xyz Energy 0.0948544
   O      0.669495      0.897438      0.302979
   O     -0.453701     -0.894538     -0.582564
   C     -0.211163     -0.002842      0.273578
   H     -0.909172     -0.012154      1.178013
   C      1.061252      0.910455      5.662045
   C     -0.086332     -0.070222      5.233598
   O     -1.016148     -0.284840      6.103197
   O      0.030345     -0.561481      4.042797
   H      0.890859      1.299616      6.673285
   H      2.024393      0.380043      5.623224
   H      1.115703      1.742154      4.944093
