   11
 0029.xyz Energy 0.103052
   O      0.422764      0.698171      0.824161
   O     -0.393263     -0.934539     -0.563388
   C     -0.028870      0.231287     -0.255178
   H     -0.124272      0.995953     -1.098677
   C      0.155964     -1.351608      4.424584
   C     -0.013651      0.108076      4.974853
   O     -0.222605      1.033748      4.099474
   O      0.077998      0.222102      6.259982
   H      0.051706     -1.376526      3.332982
   H      1.145614     -1.735259      4.714220
   H     -0.597703     -2.004943      4.888571
