   11
 0031.xyz Energy 0.117508
   O      0.644331      0.554943      0.788854
   O     -0.586219     -0.824224     -0.567826
   C     -0.056867      0.263495     -0.216286
   H     -0.244802      1.134620     -0.931218
   C     -1.198153      0.144491      5.692635
   C      0.096193     -0.015531      4.820107
   O      1.024739     -0.773715      5.299461
   O      0.088547      0.639984      3.705120
   H     -1.129634     -0.448432      6.612871
   H     -1.337753      1.206891      5.942245
   H     -2.073344     -0.172388      5.106315
