   11
 0032.xyz Energy 0.0979274
   O      0.438205      0.084794      1.070607
   O     -0.335900      0.253094     -1.080990
   C     -0.100111     -0.330632      0.010153
   H     -0.431022     -1.423642      0.043819
   C      1.351928     -0.233908      4.335850
   C     -0.106706      0.023042      4.854124
   O     -0.704282      1.072643      4.397986
   O     -0.551892     -0.855603      5.692424
   H      1.658061      0.538282      3.619546
   H      2.043647     -0.245233      5.191351
   H      1.400025     -1.225550      3.862060
