   11
 0033.xyz Energy 0.0973956
   O      0.171066     -0.539231     -1.012610
   O     -0.433396      0.303557      1.032204
   C      0.256695      0.230615     -0.019167
   H      1.105304      0.992942     -0.082623
   C     -1.417016      0.070642      4.877665
   C      0.112503     -0.006776      5.219456
   O      0.897769     -0.385504      4.267226
   O      0.418875      0.319783      6.432902
   H     -1.602163     -0.203721      3.831944
   H     -1.972065     -0.605281      5.545148
   H     -1.780885      1.091195      5.067966
