   11
 0034.xyz Energy 0.114784
   O      0.520161      0.817521      0.637578
   O     -0.240288     -1.003765     -0.529284
   C     -0.273865      0.182239     -0.105972
   H     -1.179170      0.784769     -0.456238
   C      0.211559      0.174624      6.308836
   C     -0.022404     -0.011887      4.768473
   O     -1.231763      0.147159      4.345420
   O      1.035664     -0.309791      4.086783
   H     -0.721628      0.439974      6.820536
   H      0.616072     -0.758106      6.729395
   H      0.964341      0.960486      6.469718
