   11
 0036.xyz Energy 0.0983065
   O      0.216434      0.045238      1.138650
   O      0.129383      0.025219     -1.152410
   C     -0.338391     -0.068944      0.013458
   H     -1.457039     -0.296858      0.058054
   C     -1.061185      0.556970      3.855079
   C      0.082852     -0.049024      4.741755
   O      0.332653     -1.305480      4.581325
   O      0.653378      0.788349      5.545660
   H     -1.488588     -0.202460      3.188986
   H     -1.846789      0.966505      4.507454
   H     -0.658513      1.391916      3.262741
