   11
 0037.xyz Energy 0.104402
   O     -1.077268      0.417327     -0.103661
   O      1.151309     -0.072426      0.121104
   C     -0.072445     -0.337496     -0.017068
   H     -0.312036     -1.453165     -0.073503
   C     -1.333635      0.188513      3.789816
   C      0.107119     -0.012407      4.378120
   O      1.094254      0.253047      3.589502
   O      0.144824     -0.428633      5.602167
   H     -1.290648      0.555993      2.757247
   H     -1.875441     -0.768458      3.823545
   H     -1.887168      0.901134      4.419035
