   11
 0038.xyz Energy 0.102632
   O      0.647282     -0.544693      0.793567
   O     -0.906929      0.406439     -0.598089
   C      0.254067      0.135288     -0.191285
   H      1.094035      0.582480     -0.823567
   C     -1.224198     -0.733340      4.816498
   C      0.095110      0.056900      5.128246
   O      0.327623      0.324084      6.369765
   O      0.809974      0.357616      4.093115
   H     -1.771057     -0.967647      5.737982
   H     -1.858093     -0.131020      4.148761
   H     -0.974218     -1.661797      4.282063
