   11
 0039.xyz Energy 0.101206
   O     -0.810322     -0.035333     -0.829183
   O      0.537065      0.158898      1.015744
   C      0.267393     -0.120912     -0.182550
   H      1.151275     -0.520630     -0.786109
   C      0.354625      1.337634      4.650778
   C     -0.027723     -0.103086      5.141063
   O     -0.027553     -0.296870      6.417490
   O     -0.301807     -0.946376      4.199417
   H      0.558800      2.002086      5.499248
   H      1.241429      1.276255      4.002475
   H     -0.467511      1.745373      4.044160
