   10
 0000.xyz Energy 0.00107683
   C     -0.659170      0.867819      0.963955
   C      0.046299     -0.069953     -0.077746
   O     -0.720952     -0.846718     -0.766791
   O      1.334012      0.040311     -0.128649
   H     -1.747521      0.733189      0.942661
   H     -0.274792      0.645097      1.970500
   H     -0.406091      1.914797      0.740497
   O     -0.056495     -0.032753      4.255330
   H      0.803786     -0.382740      4.505426
   H      0.093012      0.902664      4.088705
