   10
 0001.xyz Energy 0.00103122
   C      0.367754     -0.421707      1.343035
   C     -0.033164      0.036771     -0.103100
   O     -1.067934      0.802833     -0.199119
   O      0.726471     -0.411450     -1.049149
   H     -0.307367      0.006212      2.094157
   H      0.337626     -1.520228      1.396226
   H      1.402965     -0.111667      1.548842
   O      0.028519     -0.057883      4.648933
   H     -0.696765      0.131315      5.251667
   H      0.244057      0.787519      4.244012
