   10
 0003.xyz Energy -0.00414678
   C      1.427738      0.170706      0.221919
   C     -0.111871     -0.009270     -0.021916
   O     -0.657852      0.790316     -0.875958
   O     -0.668951     -0.949197      0.670294
   H      1.835940      0.971608     -0.406583
   H      1.601739      0.403147      1.283135
   H      1.943398     -0.776450      0.004814
   O      0.018758      0.062110      3.688759
   H      0.580921     -0.702057      3.530193
   H     -0.878688     -0.283878      3.690767
