   10
 0004.xyz Energy -0.00265423
   C     -1.183868      0.116563     -0.837672
   C      0.089735     -0.012398      0.069824
   O     -0.077869     -0.567487      1.223342
   O      1.178250      0.459644     -0.445216
   H     -2.063966     -0.316195     -0.346515
   H     -1.364501      1.178913     -1.059639
   H     -1.000683     -0.392112     -1.795710
   O      0.002484     -0.059754      4.726637
   H     -0.744234      0.546431      4.718020
   H      0.704809      0.402106      4.259148
