   10
 0008.xyz Energy 0.00412136
   C     -1.011365      0.448921     -0.944687
   C      0.080784     -0.039894      0.070454
   O      0.657979     -1.162686     -0.199739
   O      0.281580      0.745850      1.078047
   H     -1.118226     -0.255190     -1.778892
   H     -1.972449      0.554810     -0.419720
   H     -0.734566      1.443046     -1.325792
   O      0.065183      0.005410      4.417146
   H     -0.577932      0.716053      4.497836
   H     -0.456785     -0.801926      4.387463
