   10
 0009.xyz Energy -0.00031573
   C      0.516244     -0.400403     -1.299997
   C     -0.043970      0.035702      0.099365
   O     -0.805436      1.078153      0.116326
   O      0.326183     -0.706348      1.091990
   H      0.151172      0.261288     -2.094966
   H      1.615927     -0.379841     -1.272413
   H      0.212684     -1.437491     -1.506013
   O      0.033249      0.055755      4.308495
   H      0.374789     -0.842157      4.355677
   H     -0.902582     -0.042892      4.109468
