   10
 0010.xyz Energy -0.00379613
   C      0.316554     -1.420009      0.013826
   C     -0.026369      0.111188      0.004825
   O     -0.552082      0.590783      1.082059
   O      0.257878      0.728766     -1.095520
   H      0.064534     -1.875270      0.979389
   H     -0.240460     -1.920766     -0.792067
   H      1.388114     -1.553850     -0.195909
   O      0.034533     -0.055131      3.767372
   H      0.319834      0.843707      3.956624
   H     -0.868005      0.031438      3.446354
