   10
 0011.xyz Energy -0.00135514
   C     -0.620890     -0.803808     -1.041735
   C      0.054180      0.060690      0.080391
   O      1.304250     -0.166360      0.309720
   O     -0.727827      0.913396      0.658590
   H      0.101202     -1.491949     -1.497949
   H     -1.456287     -1.372920     -0.607330
   H     -1.041817     -0.138147     -1.809758
   O      0.054128     -0.033094      3.543837
   H     -0.664979     -0.328382      4.110239
   H     -0.194241      0.853714      3.266335
