   10
 0014.xyz Energy -0.00342923
   C     -1.265016      0.518776      0.497421
   C      0.096346     -0.045323     -0.041770
   O      0.048740     -1.183233     -0.649812
   O      1.127096      0.701481      0.187998
   H     -2.095428     -0.155542      0.254938
   H     -1.196438      0.649989      1.587635
   H     -1.446821      1.510954      0.058474
   O     -0.028005      0.056671      4.877040
   H     -0.138379     -0.425845      4.052347
   H      0.582937     -0.473748      5.397162
