   10
 0015.xyz Energy -0.0156354
   C     -1.213695      0.781663     -0.181030
   C      0.096528     -0.058232      0.019306
   O      0.872467      0.305138      0.985070
   O      0.255359     -1.031676     -0.817436
   H     -1.290914      1.577680      0.569624
   H     -1.212881      1.218984     -1.190601
   H     -2.086527      0.115585     -0.112855
   O     -0.047510      0.033800      4.249776
   H      0.625655     -0.516094      4.661587
   H      0.128514     -0.020451      3.305745
