   10
 0016.xyz Energy -0.0064835
   C      0.917523      0.725157      0.865518
   C     -0.067601     -0.060917     -0.069287
   O      0.438930     -1.029013     -0.757064
   O     -1.291918      0.355641     -0.047257
   H      1.931282      0.310255      0.808639
   H      0.930301      1.784662      0.569256
   H      0.550598      0.678718      1.901546
   O     -0.018079     -0.026553      4.557047
   H      0.794319     -0.187709      4.068006
   H     -0.507334      0.609216      4.026436
