   10
 0017.xyz Energy -0.00264754
   C     -0.115815     -0.978986      1.070045
   C      0.013651      0.073617     -0.086462
   O      0.998669     -0.087550     -0.905354
   O     -0.891350      0.997697     -0.088660
   H      0.672039     -1.739079      1.001985
   H     -0.053389     -0.461932      2.039191
   H     -1.104796     -1.457769      1.016872
   O     -0.058203     -0.024582      5.117157
   H      0.139824      0.538378      4.362847
   H      0.784091     -0.148157      5.564808
