   10
 0018.xyz Energy -0.0122193
   C     -1.381776     -0.086617     -0.447230
   C      0.107726      0.001701      0.038389
   O      0.476155     -0.858153      0.928182
   O      0.807895      0.939236     -0.512744
   H     -1.910286     -0.910214      0.048201
   H     -1.889676      0.865602     -0.233218
   H     -1.400748     -0.230592     -1.537669
   O     -0.001372      0.028201      4.459068
   H      0.768544     -0.133867      3.905818
   H     -0.746769     -0.313790      3.956529
