   10
 0019.xyz Energy 0.00547544
   C     -1.172167      0.814296      0.282436
   C      0.094576     -0.059216     -0.025107
   O      0.987223      0.469774     -0.793332
   O      0.101705     -1.226979      0.530984
   H     -1.104526      1.793676     -0.206774
   H     -2.071117      0.284055     -0.065730
   H     -1.268811      0.944180      1.370524
   O      0.051815     -0.027855      4.151269
   H     -0.247507      0.881913      4.062677
   H     -0.575011     -0.439737      4.753401
