   10
 0021.xyz Energy 0.00148537
   C      0.388841      1.241083      0.652179
   C     -0.029134     -0.095004     -0.056629
   O     -0.034159     -0.085840     -1.347641
   O     -0.327495     -1.067619      0.742093
   H      0.642122      2.015163     -0.082489
   H     -0.438474      1.587276      1.289507
   H      1.250760      1.050237      1.308546
   O     -0.052365      0.039285      3.519056
   H      0.873825      0.298578      3.511255
   H     -0.042586     -0.922182      3.543724
