   10
 0022.xyz Energy -0.00809353
   C     -0.632355      0.494923     -1.213261
   C      0.044225     -0.038837      0.098068
   O     -0.707796     -0.116323      1.144624
   O      1.295968     -0.343408     -0.017393
   H     -1.693347      0.718164     -1.047292
   H     -0.107653      1.402091     -1.548252
   H     -0.527147     -0.257472     -2.008859
   O      0.044807     -0.026353      4.339801
   H      0.157874      0.720850      3.744800
   H     -0.869142     -0.302523      4.223405
