   10
 0024.xyz Energy 0.005288
   C     -1.081108      0.376758      0.897821
   C      0.086669     -0.033856     -0.066511
   O      0.924639     -0.907667      0.381908
   O      0.079944      0.558098     -1.216512
   H     -1.022533     -0.173031      1.845127
   H     -1.028765      1.458801      1.089989
   H     -2.045157      0.177090      0.407019
   O      0.015186     -0.034009      4.946158
   H      0.446841      0.758581      5.278717
   H     -0.687903     -0.218716      5.575976
