   10
 0025.xyz Energy 0.00907303
   C      0.480452     -1.220941      0.628722
   C     -0.034340      0.099160     -0.045491
   O      0.319401      1.207981      0.513260
   O     -0.766340     -0.073713     -1.097750
   H      1.105069     -1.000082      1.502886
   H     -0.382013     -1.833542      0.930979
   H      1.055537     -1.803980     -0.105776
   O     -0.003849      0.045025      3.532628
   H     -0.551754     -0.024040      4.320125
   H      0.612859     -0.690694      3.591863
