   10
 0026.xyz Energy 0.00135932
   C      0.636770     -1.135422      0.649741
   C     -0.049459      0.092372     -0.045854
   O     -0.309514      1.109659      0.705358
   O     -0.282441     -0.054924     -1.309571
   H      0.817980     -0.936204      1.713020
   H     -0.007322     -2.020623      0.539965
   H      1.587301     -1.356465      0.142025
   O     -0.001804     -0.044442      4.091959
   H      0.137226     -0.202637      5.030451
   H     -0.108583      0.908107      4.012146
