   10
 0029.xyz Energy -0.00191544
   C      0.513257     -0.928387     -0.995735
   C     -0.035353      0.071896      0.081625
   O      0.635573      0.160349      1.181104
   O     -1.113087      0.702314     -0.256040
   H      1.433781     -1.414661     -0.650395
   H     -0.253511     -1.688209     -1.208394
   H      0.704819     -0.384601     -1.932616
   O      0.008338     -0.063447      4.573826
   H     -0.823242      0.411514      4.484345
   H      0.690880      0.595649      4.416189
