   10
 0031.xyz Energy 0.0129353
   C      0.600697     -0.002988     -1.325133
   C     -0.042378      0.003372      0.106180
   O      0.678119      0.491220      1.059967
   O     -1.236688     -0.488911      0.171270
   H      1.603468      0.441183     -1.309295
   H      0.656527     -1.038514     -1.692629
   H     -0.046517      0.556101     -2.016998
   O     -0.041135     -0.002619      3.909135
   H      0.571382     -0.683942      4.201954
   H      0.081599      0.725512      4.525482
