   10
 0032.xyz Energy -0.00174282
   C      0.963161     -1.090257      0.022001
   C     -0.075745      0.085340     -0.007829
   O     -0.389319      0.548467     -1.171446
   O     -0.505552      0.464824      1.151573
   H      1.272036     -1.369893     -0.992635
   H      1.841689     -0.782572      0.608519
   H      0.516510     -1.957361      0.530704
   O      0.055020      0.033598      4.388587
   H     -0.062772     -0.710539      4.986507
   H     -0.810611      0.177205      3.994657
