   10
 0033.xyz Energy -0.00685827
   C     -0.762262     -0.905522      0.846056
   C      0.057677      0.068259     -0.071383
   O      0.044907     -0.184450     -1.337398
   O      0.663795      1.026064      0.551665
   H     -1.260741     -1.681352      0.252176
   H     -0.084421     -1.371946      1.576443
   H     -1.508540     -0.329187      1.412669
   O     -0.042050      0.036204      4.914747
   H      0.697989     -0.480833      5.246614
   H     -0.030484     -0.093861      3.961819
