   10
 0035.xyz Energy -0.00107714
   C     -0.451011     -0.921828     -1.031332
   C      0.029600      0.073461      0.082515
   O     -0.890658      0.734525      0.701337
   O      1.310312      0.122141      0.256767
   H     -1.544728     -0.923238     -1.114205
   H     -0.003782     -0.631834     -1.993816
   H     -0.091306     -1.934033     -0.794274
   O     -0.035368      0.040785      3.057040
   H     -0.262568     -0.855794      2.793129
   H      0.824005      0.208378      2.658905
