   10
 0037.xyz Energy 0.0004409
   C     -0.816932      1.042301     -0.602539
   C      0.063316     -0.085315      0.042355
   O      0.132090     -1.202313     -0.601389
   O      0.626972      0.233992      1.161860
   H     -1.250218      0.709409     -1.553609
   H     -1.619607      1.319858      0.096860
   H     -0.199020      1.937865     -0.764699
   O     -0.007334      0.063987      4.131751
   H     -0.669269     -0.549439      3.799079
   H      0.785688     -0.466294      4.254385
