   10
 0038.xyz Energy 0.00287335
   C      0.051572     -1.453663      0.032062
   C     -0.002328      0.114302      0.003342
   O      0.184718      0.718489      1.128860
   O     -0.232995      0.632326     -1.159156
   H      0.265369     -1.822815      1.042559
   H     -0.911375     -1.855718     -0.316608
   H      0.825535     -1.803716     -0.666928
   O      0.065062      0.007242      4.199171
   H     -0.601363      0.693745      4.100619
   H     -0.431438     -0.808698      4.312535
