   10
 0040.xyz Energy -0.0358793
   C      0.510000      0.149000     -1.092000
   C      0.196000      0.059000      0.382000
   O      0.814000     -0.825000      1.041000
   O     -0.653000      0.884000      0.824000
   H      1.260000     -0.592000     -1.385000
   H     -0.398000     -0.027000     -1.677000
   H      0.897000      1.144000     -1.329000
   O     -0.343360     -0.011560      3.432140
   H      0.234640     -0.547560      2.833140
   H     -0.703360      0.544440      2.697140
