   10
 0042.xyz Energy -0.0356997
   C      0.510000      0.149000     -1.092000
   C      0.196000      0.059000      0.382000
   O      0.814000     -0.825000      1.041000
   O     -0.653000      0.884000      0.824000
   H      1.260000     -0.592000     -1.385000
   H     -0.398000     -0.027000     -1.677000
   H      0.897000      1.144000     -1.329000
   O     -0.332000     -0.017000      3.397000
   H      0.246000     -0.553000      2.798000
   H     -0.692000      0.539000      2.662000
