   10
 0043.xyz Energy -0.0347982
   C      0.510000      0.149000     -1.092000
   C      0.196000      0.059000      0.382000
   O      0.814000     -0.825000      1.041000
   O     -0.653000      0.884000      0.824000
   H      1.260000     -0.592000     -1.385000
   H     -0.398000     -0.027000     -1.677000
   H      0.897000      1.144000     -1.329000
   O     -0.309280     -0.027880      3.326720
   H      0.268720     -0.563880      2.727720
   H     -0.669280      0.528120      2.591720
