   10
 0044.xyz Energy -0.0315981
   C      0.510000      0.149000     -1.092000
   C      0.196000      0.059000      0.382000
   O      0.814000     -0.825000      1.041000
   O     -0.653000      0.884000      0.824000
   H      1.260000     -0.592000     -1.385000
   H     -0.398000     -0.027000     -1.677000
   H      0.897000      1.144000     -1.329000
   O     -0.275200     -0.044200      3.221300
   H      0.302800     -0.580200      2.622300
   H     -0.635200      0.511800      2.486300
