    6
 0000.xyz Energy 0.140881
   H     -0.605006      0.633055      0.530824
   N      0.000003     -0.000003     -0.000003
   H      0.639896      0.547707     -0.582269
   H      0.540187     -0.579696      0.648616
   H     -0.575123     -0.601017     -0.597130
  Na      0.000000      0.000000      3.680000
