    6
 0001.xyz Energy 0.123762
   H      0.275702      0.986165     -0.005661
   N     -0.000002     -0.000005      0.000000
   H     -0.510789     -0.206642      0.863064
   H     -0.601313     -0.190919     -0.806551
   H      0.836421     -0.588528     -0.050852
  Na      0.000000      0.000000      4.240000
