    6
 0003.xyz Energy 0.107752
   H      0.116997     -1.011259      0.110598
   N     -0.000001      0.000006     -0.000001
   H     -0.143747      0.429414      0.918383
   H      0.839035      0.395207     -0.434032
   H     -0.812276      0.186561     -0.594940
  Na      0.000000      0.000000      4.900000
