    6
 0008.xyz Energy 0.119977
   H      0.093201     -0.957759     -0.350109
   N     -0.000001      0.000005      0.000002
   H     -0.762242      0.471672     -0.494974
   H     -0.206096     -0.021720      1.002798
   H      0.875144      0.507733     -0.157742
  Na      0.000000      0.000000      4.420000
