    6
 0009.xyz Energy 0.114631
   H      0.505275      0.874429     -0.169219
   N     -0.000003     -0.000005      0.000001
   H      0.263218     -0.374530      0.915932
   H     -1.008018      0.179176     -0.018641
   H      0.239564     -0.679010     -0.728085
  Na      0.000000      0.000000      4.600000
