    6
 0010.xyz Energy 0.110337
   H     -0.612948      0.172690      0.801896
   N      0.000003     -0.000001     -0.000004
   H      0.016290     -1.002584     -0.207475
   H     -0.351366      0.511463     -0.814555
   H      0.947977      0.318444      0.220194
  Na      0.000000      0.000000      4.760000
