    6
 0011.xyz Energy 0.101586
   H     -1.000301     -0.182364     -0.121267
   N      0.000005      0.000001      0.000001
   H      0.177603      1.004137     -0.093016
   H      0.293976     -0.313984      0.929271
   H      0.528646     -0.507803     -0.714997
  Na      0.000000      0.000000      5.200000
