    6
 0012.xyz Energy 0.0998394
   H      0.812692      0.622195      0.031128
   N     -0.000004     -0.000003     -0.000000
   H     -0.853229      0.545104      0.152802
   H     -0.045760     -0.456134     -0.915642
   H      0.086358     -0.711118      0.731714
  Na      0.000000      0.000000      5.260000
