    6
 0013.xyz Energy 0.0936847
   H      0.777797     -0.665964      0.009364
   N     -0.000004      0.000004     -0.000000
   H      0.366135      0.953445      0.073310
   H     -0.523093     -0.098439     -0.874777
   H     -0.620780     -0.189092      0.792104
  Na      0.000000      0.000000      5.620000
