    6
 0017.xyz Energy 0.1171
   H     -0.421148     -0.770055      0.527460
   N      0.000002      0.000004     -0.000003
   H      0.995387      0.067387      0.230543
   H     -0.106923     -0.174867     -1.003265
   H     -0.467348      0.877476      0.245302
  Na      0.000000      0.000000      4.440000
