    6
 0019.xyz Energy 0.0996925
   H      0.639678      0.402755     -0.690772
   N     -0.000003     -0.000002      0.000004
   H     -0.897811     -0.207565     -0.446475
   H      0.402444     -0.863665      0.375064
   H     -0.144262      0.668505      0.762129
  Na      0.000000      0.000000      5.280000
