    6
 0022.xyz Energy 0.121553
   H     -0.487911      0.894632     -0.100705
   N      0.000003     -0.000005      0.000001
   H     -0.664522     -0.767868     -0.131438
   H      0.741053     -0.065708     -0.703615
   H      0.411343     -0.060988      0.935751
  Na      0.000000      0.000000      4.340000
