    6
 0023.xyz Energy 0.115435
   H     -0.371847     -0.360044      0.883551
   N      0.000002      0.000002     -0.000005
   H     -0.218511     -0.656325     -0.754968
   H     -0.425195      0.908896     -0.204131
   H      1.015524      0.107445      0.075615
  Na      0.000000      0.000000      4.560000
