    6
 0026.xyz Energy 0.101017
   H      0.919353     -0.356993     -0.275519
   N     -0.000005      0.000002      0.000002
   H     -0.425042     -0.638864      0.677996
   H      0.106462      0.926054      0.423843
   H     -0.600703      0.069776     -0.826341
  Na      0.000000      0.000000      5.200000
