    6
 0030.xyz Energy 0.11674
   H      0.539163     -0.486428     -0.721980
   N     -0.000003      0.000003      0.000004
   H     -0.068897     -0.592830      0.832041
   H      0.469196      0.876958      0.243622
   H     -0.939421      0.202263     -0.353738
  Na      0.000000      0.000000      4.500000
