    6
 0032.xyz Energy 0.102552
   H     -0.355865     -0.391642      0.876665
   N      0.000002      0.000002     -0.000005
   H     -0.105453      1.018422      0.013500
   H      0.990235     -0.239279     -0.103593
   H     -0.528944     -0.387531     -0.786505
  Na      0.000000      0.000000      5.140000
