   12
 0000.xyz Energy -0.111968
   N     -0.599813      0.749803     -0.795582
   C      0.036009     -0.505259     -0.260279
   H     -0.987094      0.589012     -1.740669
   H      0.093922      1.513802     -0.856866
   H     -1.369873      1.060927     -0.179995
   H      0.815021     -0.793983     -0.972564
   H     -0.741957     -1.274852     -0.252821
   C      0.646002     -0.374090      1.146870
   H      1.432790      0.384143      1.159021
   H      1.083892     -1.325509      1.458827
   H     -0.118372     -0.094669      1.876094
   F      0.000000      0.000000      4.500000
