   12
 0001.xyz Energy -0.10709
   N     -0.030407      0.292223     -1.211863
   C      0.011959      0.496358      0.278953
   H     -0.035743      1.200815     -1.705281
   H     -0.880369     -0.228637     -1.485703
   H      0.794041     -0.243518     -1.531245
   H     -0.866456      1.093804      0.541660
   H      0.914209      1.077656      0.492489
   C      0.023170     -0.798643      1.110948
   H     -0.875294     -1.390294      0.919089
   H      0.054905     -0.562082      2.177388
   H      0.898649     -1.406549      0.869915
   F      0.000000      0.000000      4.800000
