   12
 0003.xyz Energy -0.163971
   N     -0.378700     -1.139335      0.336798
   C      0.122815     -0.035160     -0.554985
   H     -0.482864     -2.019914     -0.194953
   H     -1.298909     -0.894801      0.739462
   H      0.280194     -1.308529      1.115239
   H     -0.601165      0.067556     -1.369155
   H      1.077904     -0.372861     -0.968898
   C      0.313567      1.324541      0.140856
   H     -0.631943      1.684572      0.553756
   H      0.678648      2.066481     -0.573638
   H      1.040721      1.245751      0.952737
   F      0.000000      0.000000      3.380000
