   12
 0004.xyz Energy -0.161716
   N     -0.083690     -0.017614      1.244032
   C     -0.522527     -0.119672     -0.192284
   H     -0.876770     -0.198214      1.882340
   H      0.285710      0.926257      1.447431
   H      0.659107     -0.706690      1.449373
   H     -1.326532      0.609808     -0.330146
   H     -0.929005     -1.126686     -0.327407
   C      0.586908      0.132691     -1.229026
   H      1.000500      1.137933     -1.117090
   H      0.186095      0.039193     -2.241384
   H      1.396721     -0.591968     -1.114203
   F      0.000000      0.000000      4.400000
