   12
 0006.xyz Energy -0.174861
   N     -0.634214      0.798941      0.717214
   C      0.550128      0.090092      0.116494
   H     -0.326247      1.508158      1.403653
   H     -1.254379      0.128733      1.201915
   H     -1.184708      1.277003     -0.015692
   H      1.101866     -0.362994      0.945873
   H      1.175215      0.858402     -0.348831
   C      0.200827     -0.990452     -0.922630
   H     -0.416372     -1.773327     -0.475110
   H      1.112993     -1.453082     -1.307582
   H     -0.343552     -0.556517     -1.764926
   F      0.000000      0.000000      3.520000
