   12
 0008.xyz Energy -0.128079
   N     -0.181627      0.838209     -0.905178
   C     -0.432331      0.068958      0.364230
   H     -0.919774      1.546467     -1.055307
   H     -0.172290      0.203907     -1.721446
   H      0.729273      1.325332     -0.863812
   H     -1.420161     -0.391472      0.265407
   H     -0.461065      0.801409      1.176787
   C      0.612972     -1.015060      0.683003
   H      0.651006     -1.762725     -0.113018
   H      0.357807     -1.522851      1.616437
   H      1.606637     -0.574311      0.794725
   F      0.000000      0.000000      3.860000
