   12
 0009.xyz Energy -0.12622
   N     -0.614475     -1.005008     -0.409036
   C      0.541457     -0.073299     -0.160563
   H     -0.304240     -1.841031     -0.932342
   H     -1.351582     -0.534420     -0.960343
   H     -1.029589     -1.319119      0.484134
   H      0.950440      0.191896     -1.140345
   H      1.292142     -0.642950      0.395792
   C      0.186613      1.208206      0.614807
   H     -0.556006      1.797111      0.070926
   H      1.077888      1.825473      0.752181
   H     -0.215841      0.965372      1.601303
   F      0.000000      0.000000      4.040000
