   12
 0010.xyz Energy -0.111278
   N     -0.270854      0.397679     -1.150400
   C     -0.189839      0.404815      0.352725
   H     -0.734351      1.255013     -1.495623
   H     -0.811578     -0.417959     -1.483674
   H      0.673985      0.351483     -1.567393
   H     -1.215751      0.487348      0.724562
   H      0.364162      1.305428      0.634752
   C      0.485748     -0.831988      0.971812
   H     -0.058203     -1.742704      0.709491
   H      0.503753     -0.746860      2.061165
   H      1.515805     -0.927835      0.619807
   F      0.000000      0.000000      4.580000
