   12
 0012.xyz Energy -0.16815
   N      0.303191      0.425136      1.132372
   C      0.177559      0.397226     -0.367440
   H      0.773078      1.291872      1.443827
   H      0.857036     -0.380642      1.468073
   H     -0.628648      0.385220      1.578265
   H      1.191621      0.474802     -0.771461
   H     -0.388398      1.289094     -0.653490
   C     -0.510837     -0.855964     -0.937520
   H      0.044533     -1.758423     -0.670631
   H     -0.561535     -0.796111     -2.027525
   H     -1.529573     -0.947324     -0.552888
   F      0.000000      0.000000      4.100000
