   12
 0013.xyz Energy -0.158237
   N      0.537577      1.096137      0.253821
   C      0.427494     -0.363982     -0.095365
   H      1.528711      1.386015      0.305323
   H      0.097474      1.287416      1.169485
   H      0.067548      1.679096     -0.458899
   H      0.970432     -0.916111      0.677902
   H      0.938445     -0.498804     -1.053652
   C     -1.011900     -0.899712     -0.197867
   H     -1.537528     -0.782803      0.753000
   H     -1.002110     -1.962000     -0.454206
   H     -1.569520     -0.366856     -0.971970
   F      0.000000      0.000000      3.520000
