   12
 0015.xyz Energy -0.110274
   N      0.275464      0.280277     -1.183425
   C     -0.051009      0.498986      0.269703
   H      0.405084      1.183835     -1.669030
   H     -0.486795     -0.233673     -1.656220
   H      1.146106     -0.267963     -1.284193
   H     -0.959014      1.108962      0.301734
   H      0.777686      1.072166      0.696656
   C     -0.264235     -0.787577      1.087417
   H     -1.094786     -1.370933      0.682473
   H     -0.495170     -0.540617      2.126619
   H      0.635403     -1.407760      1.075722
   F      0.000000      0.000000      4.640000
