   12
 0017.xyz Energy -0.157474
   N      0.749862      0.152005      0.984648
   C      0.305362      0.159346     -0.453533
   H      1.724755      0.486241      1.067712
   H      0.701621     -0.803007      1.377514
   H      0.147857      0.767723      1.556681
   H      1.000874     -0.482447     -1.003018
   H      0.411995      1.187899     -0.811679
   C     -1.137502     -0.322382     -0.689008
   H     -1.262993     -1.352334     -0.346152
   H     -1.378906     -0.285321     -1.754190
   H     -1.849717      0.311662     -0.155295
   F      0.000000      0.000000      4.180000
