   12
 0018.xyz Energy -0.129321
   N      1.162525      0.437788     -0.108662
   C     -0.214039      0.242958      0.468495
   H      1.710916      1.097515      0.468449
   H      1.106315      0.818269     -1.068242
   H      1.673790     -0.459950     -0.146248
   H     -0.683004      1.230891      0.508884
   H     -0.078851     -0.128498      1.488938
   C     -1.116164     -0.724991     -0.318025
   H     -1.271601     -0.367000     -1.338702
   H     -2.092073     -0.809629      0.166432
   H     -0.669565     -1.721324     -0.362529
   F      0.000000      0.000000      4.120000
