   12
 0019.xyz Energy -0.117242
   N     -0.070947      0.694386     -1.033308
   C     -0.530844     -0.028828      0.204212
   H     -0.866387      1.160726     -1.501102
   H      0.356636      0.034816     -1.704768
   H      0.631368      1.414959     -0.796103
   H     -1.291088     -0.748749     -0.114085
   H     -0.998477      0.719300      0.851656
   C      0.580298     -0.759960      0.978922
   H      1.054671     -1.519033      0.352122
   H      0.163518     -1.255746      1.859121
   H      1.346376     -0.056461      1.314072
   F      0.000000      0.000000      4.220000
