   12
 0020.xyz Energy -0.110806
   N      0.296299     -0.450297     -1.124442
   C     -0.121807     -0.453911      0.321647
   H      0.341751     -1.414755     -1.494287
   H      1.229027     -0.018276     -1.234421
   H     -0.377225      0.084000     -1.698576
   H      0.612206     -1.059749      0.861792
   H     -1.095770     -0.950760      0.367436
   C     -0.221116      0.937845      0.971663
   H      0.744858      1.448003      0.944593
   H     -0.529424      0.845733      2.016040
   H     -0.956610      1.556722      0.451903
   F      0.000000      0.000000      4.560000
