   12
 0022.xyz Energy -0.160211
   N      0.808868     -0.072188      0.946284
   C      0.316058      0.060026     -0.469929
   H      1.841827     -0.040671      0.978384
   H      0.500451     -0.968580      1.358690
   H      0.444226      0.696400      1.533690
   H      0.763346     -0.761014     -1.038609
   H      0.703599      1.009563     -0.851702
   C     -1.214468      0.025265     -0.630082
   H     -1.621169     -0.920101     -0.262690
   H     -1.486341      0.127446     -1.683602
   H     -1.680756      0.843771     -0.076245
   F      0.000000      0.000000      4.080000
