   12
 0024.xyz Energy -0.117944
   N     -0.418742      0.725482     -0.923721
   C      0.214990     -0.463270     -0.251970
   H     -0.423165      0.605755     -1.950695
   H      0.101176      1.591081     -0.702040
   H     -1.396014      0.845659     -0.608705
   H      1.229440     -0.549917     -0.653159
   H     -0.363139     -1.341949     -0.554049
   C      0.272218     -0.386058      1.284301
   H      0.853863      0.480797      1.607338
   H      0.744046     -1.284307      1.690243
   H     -0.732821     -0.308023      1.706106
   F      0.000000      0.000000      4.200000
