   12
 0026.xyz Energy -0.116467
   N     -0.569706     -0.418706     -1.027157
   C      0.194690     -0.462729      0.268898
   H     -0.712712     -1.372479     -1.399843
   H     -0.056166      0.131106     -1.736172
   H     -1.497330      0.016565     -0.890080
   H      1.145871     -0.961302      0.058541
   H     -0.387169     -1.082872      0.957681
   C      0.462448      0.910345      0.911037
   H      1.051141      1.542818      0.242069
   H      1.018924      0.788996      1.843705
   H     -0.476231      1.421853      1.137647
   F      0.000000      0.000000      4.260000
