   12
 0027.xyz Energy -0.110617
   N      0.355517     -0.164175     -1.183886
   C      0.448545     -0.147360      0.318466
   H      1.243276     -0.490498     -1.601528
   H      0.156088      0.782357     -1.548609
   H     -0.399892     -0.796920     -1.496502
   H      1.283013      0.511917      0.576513
   H      0.691490     -1.167535      0.631166
   C     -0.825350      0.324889      1.042025
   H     -1.080546      1.346583      0.750278
   H     -0.673813      0.306581      2.124136
   H     -1.669985     -0.326491      0.804523
   F      0.000000      0.000000      4.640000
