   12
 0029.xyz Energy -0.151039
   N      0.648332     -0.124757      1.057843
   C     -0.292908      0.485408      0.053969
   H      0.710953      0.464205      1.905329
   H      1.597571     -0.218566      0.659266
   H      0.322315     -1.064030      1.341070
   H      0.092471      1.483684     -0.175157
   H     -1.263206      0.584076      0.550302
   C     -0.459025     -0.315672     -1.249888
   H      0.498421     -0.417870     -1.766562
   H     -1.155902      0.193852     -1.919969
   H     -0.851988     -1.314278     -1.043787
   F      0.000000      0.000000      4.500000
