   12
 0037.xyz Energy -0.229826
   N      0.476000     -0.312000      1.087000
   C     -0.381000      0.434000      0.173000
   H      0.448000      0.181000      2.040000
   H      1.481000     -0.295000      0.910000
   H      0.164000     -1.242000      1.368000
   H      0.016000      1.450000      0.104000
   H     -1.384000      0.460000      0.608000
   C     -0.383000     -0.251000     -1.176000
   H      0.626000     -0.294000     -1.600000
   H     -1.022000      0.296000     -1.877000
   H     -0.764000     -1.275000     -1.099000
   F      0.571420      0.612460      3.402720
