    6
 0000.xyz Energy 0.150505
   H      0.361172     -0.539843      0.791637
   N     -0.000002      0.000003     -0.000004
   H      0.665595      0.740017     -0.240510
   H     -0.127709     -0.619221     -0.805486
   H     -0.899031      0.419006      0.254419
  Li      0.000000      0.000000      3.440000
