    6
 0002.xyz Energy 0.127974
   H     -0.312364     -0.970268      0.097839
   N      0.000002      0.000005     -0.000001
   H      0.213682      0.384646      0.924594
   H      0.839904      0.030825     -0.584947
   H     -0.741246      0.554724     -0.437479
  Li      0.000000      0.000000      4.120000
