    6
 0003.xyz Energy 0.122228
   H      1.011566      0.066559      0.144460
   N     -0.000006     -0.000000     -0.000001
   H     -0.485586      0.247823      0.866762
   H     -0.281466      0.643703     -0.744967
   H     -0.244437     -0.958079     -0.266244
  Li      0.000000      0.000000      4.300000
