    6
 0005.xyz Energy 0.114544
   H     -0.089582     -0.962355      0.338248
   N      0.000000      0.000005     -0.000002
   H      0.991192      0.249933     -0.059654
   H     -0.427862      0.077134     -0.927112
   H     -0.473755      0.635216      0.648544
  Li      0.000000      0.000000      4.560000
