    6
 0007.xyz Energy 0.146979
   H     -0.087599      1.001980      0.192166
   N      0.000000     -0.000005     -0.000001
   H      0.890409     -0.180368     -0.472361
   H     -0.030423     -0.520488      0.881316
   H     -0.772395     -0.301048     -0.601106
  Li      0.000000      0.000000      3.560000
