    6
 0008.xyz Energy 0.147288
   H     -0.891598      0.014084      0.503408
   N      0.000005     -0.000000     -0.000003
   H      0.222853      0.944751     -0.325990
   H      0.740467     -0.328475      0.626390
   H     -0.071790     -0.630358     -0.803770
  Li      0.000000      0.000000      3.500000
