    6
 0009.xyz Energy 0.134358
   H      0.149083     -1.013084     -0.000870
   N     -0.000001      0.000006      0.000000
   H      0.236471      0.380571     -0.920725
   H     -0.981963      0.200298      0.210194
   H      0.596420      0.432138      0.711401
  Li      0.000000      0.000000      3.860000
