    6
 0010.xyz Energy 0.125697
   H      0.778427     -0.533753     -0.397145
   N     -0.000004      0.000003      0.000002
   H      0.347173      0.600886      0.752923
   H     -0.424710      0.578730     -0.730236
   H     -0.700831     -0.645904      0.374428
  Li      0.000000      0.000000      4.160000
