    6
 0011.xyz Energy 0.116236
   H     -0.159463     -0.969982     -0.286829
   N      0.000001      0.000005      0.000002
   H     -0.896939      0.443394      0.217689
   H      0.599220      0.016307      0.830194
   H      0.457170      0.510207     -0.761076
  Li      0.000000      0.000000      4.520000
