    6
 0012.xyz Energy 0.108223
   H      0.263667     -0.819684     -0.554223
   N     -0.000001      0.000004      0.000003
   H      0.450025     -0.049840      0.918412
   H      0.303229      0.850486     -0.482988
   H     -1.016901      0.018976      0.118757
  Li      0.000000      0.000000      4.880000
