    6
 0013.xyz Energy 0.108633
   H     -0.258080     -0.923941      0.358180
   N      0.000001      0.000005     -0.000002
   H     -0.842519      0.571913     -0.107537
   H      0.639509      0.454683      0.657908
   H      0.461069     -0.102725     -0.908523
  Li      0.000000      0.000000      4.820000
