    6
 0014.xyz Energy 0.150832
   H      0.306982      0.974530      0.067953
   N     -0.000002     -0.000005     -0.000000
   H     -1.021832     -0.040380      0.052111
   H      0.312164     -0.394781     -0.891770
   H      0.402709     -0.539295      0.771711
  Li      0.000000      0.000000      3.420000
