    6
 0015.xyz Energy 0.137956
   H      0.001340     -0.535164      0.873019
   N     -0.000000      0.000003     -0.000005
   H     -0.729369     -0.361782     -0.620984
   H     -0.184190      0.986297      0.204557
   H      0.912220     -0.089392     -0.456526
  Li      0.000000      0.000000      3.800000
