    6
 0020.xyz Energy 0.105269
   H     -0.930363      0.189894     -0.383314
   N      0.000005     -0.000001      0.000002
   H      0.435861      0.880056      0.289851
   H     -0.084647     -0.621740      0.809214
   H      0.579079     -0.448196     -0.715779
  Li      0.000000      0.000000      5.000000
