    6
 0024.xyz Energy 0.121415
   H      0.171909      0.900449     -0.456292
   N     -0.000001     -0.000005      0.000002
   H      0.890887     -0.481622      0.151152
   H     -0.460638      0.156408      0.901056
   H     -0.602145     -0.575167     -0.595950
  Li      0.000000      0.000000      4.340000
