    6
 0025.xyz Energy 0.11953
   H      0.451540     -0.553198     -0.733927
   N     -0.000002      0.000003      0.000004
   H      0.687167      0.234980      0.721854
   H     -0.377456      0.861312     -0.405241
   H     -0.761216     -0.543136      0.417258
  Li      0.000000      0.000000      4.380000
