    6
 0029.xyz Energy 0.14145
   H      0.883201      0.359077      0.373610
   N     -0.000005     -0.000002     -0.000002
   H     -0.443049      0.718937     -0.579072
   H      0.182996     -0.831553     -0.568844
   H     -0.623081     -0.246433      0.774334
  Li      0.000000      0.000000      3.680000
