    6
 0030.xyz Energy 0.127891
   H     -0.167121      0.973079     -0.271574
   N      0.000001     -0.000005      0.000001
   H     -0.891992     -0.501252      0.039797
   H      0.611929     -0.446383     -0.689084
   H      0.447171     -0.025370      0.920840
  Li      0.000000      0.000000      4.120000
