    6
 0031.xyz Energy 0.123693
   H      0.760945     -0.244676     -0.640048
   N     -0.000004      0.000001      0.000003
   H     -0.672121      0.602565     -0.483379
   H     -0.470603     -0.853892      0.312975
   H      0.381836      0.495984      0.810403
  Li      0.000000      0.000000      4.240000
