    6
 0032.xyz Energy 0.116614
   H     -0.033262     -0.608430      0.822965
   N      0.000000      0.000003     -0.000004
   H     -0.187820     -0.552973     -0.841089
   H     -0.707171      0.735070      0.090188
   H      0.928250      0.426286     -0.072002
  Li      0.000000      0.000000      4.500000
