    6
 0033.xyz Energy 0.113492
   H      0.388179      0.634996      0.703322
   N     -0.000002     -0.000003     -0.000004
   H      0.756246     -0.548753     -0.418867
   H     -0.673666     -0.630469      0.444112
   H     -0.470730      0.544273     -0.728513
  Li      0.000000      0.000000      4.620000
