    6
 0034.xyz Energy 0.10478
   H     -0.480655     -0.904176      0.001249
   N      0.000003      0.000005     -0.000000
   H      1.012322     -0.151574      0.026763
   H     -0.245545      0.515891     -0.849774
   H     -0.286158      0.539790      0.821762
  Li      0.000000      0.000000      5.020000
