    6
 0000.xyz Energy 0.126994
   H     -0.711905      0.605012      0.419185
   N      0.000004     -0.000003     -0.000002
   H      0.883934      0.511908     -0.071395
   H      0.131980     -0.828835      0.586656
   H     -0.304063     -0.288039     -0.934415
   K      0.000000      0.000000      4.060000
