    6
 0003.xyz Energy 0.105076
   H      0.627850     -0.682370      0.434442
   N     -0.000003      0.000004     -0.000002
   H      0.427919      0.929515      0.037081
   H     -0.164920     -0.261141     -0.976298
   H     -0.890801      0.013945      0.504808
   K      0.000000      0.000000      4.960000
