    6
 0004.xyz Energy 0.0970161
   H      0.687738      0.590492      0.476340
   N     -0.000004     -0.000003     -0.000003
   H      0.411817     -0.917968     -0.190336
   H     -0.824520     -0.112863      0.596641
   H     -0.274983      0.440384     -0.882609
   K      0.000000      0.000000      5.400000
