    6
 0007.xyz Energy 0.120988
   H     -0.627321      0.804662      0.086899
   N      0.000003     -0.000004     -0.000000
   H     -0.550624     -0.863303     -0.002831
   H      0.527426      0.071322     -0.874807
   H      0.650472     -0.012621      0.790746
   K      0.000000      0.000000      4.300000
