    6
 0008.xyz Energy 0.113625
   H     -0.140827      0.790172     -0.635894
   N      0.000001     -0.000004      0.000003
   H     -0.903550     -0.299978      0.376958
   H      0.431595     -0.775914     -0.510133
   H      0.612771      0.285780      0.769021
   K      0.000000      0.000000      4.600000
