    6
 0009.xyz Energy 0.104859
   H     -0.073564      0.600540     -0.826139
   N      0.000000     -0.000003      0.000005
   H     -0.315219      0.516111      0.826289
   H     -0.585920     -0.829964     -0.128101
   H      0.974697     -0.286641      0.127888
   K      0.000000      0.000000      5.000000
