    6
 0011.xyz Energy 0.0961053
   H     -0.864240     -0.390649     -0.386066
   N      0.000005      0.000002      0.000002
   H      0.510396     -0.731495      0.502889
   H      0.581894      0.360127     -0.761748
   H     -0.228116      0.761988      0.644895
   K      0.000000      0.000000      5.460000
