    6
 0012.xyz Energy 0.0882928
   H      0.027834     -0.985574      0.276466
   N     -0.000000      0.000005     -0.000002
   H      0.939775      0.306077     -0.267631
   H     -0.635324      0.113666     -0.794981
   H     -0.332283      0.565756      0.786168
   K      0.000000      0.000000      5.960000
