    6
 0013.xyz Energy 0.0858477
   H     -0.784711      0.130693      0.644758
   N      0.000004     -0.000001     -0.000004
   H      0.549435      0.862718     -0.048232
   H      0.593395     -0.764306      0.335068
   H     -0.358179     -0.229094     -0.931545
   K      0.000000      0.000000      6.120000
