    6
 0014.xyz Energy 0.126975
   H      0.611316      0.597130      0.564175
   N     -0.000003     -0.000003     -0.000003
   H     -0.706631      0.577216     -0.464737
   H      0.557816     -0.490256     -0.705012
   H     -0.462454     -0.684044      0.605617
   K      0.000000      0.000000      4.080000
