    6
 0017.xyz Energy 0.101555
   H      0.639843     -0.321325     -0.732063
   N     -0.000003      0.000002      0.000004
   H      0.511943      0.581258      0.669731
   H     -0.753748      0.549427     -0.422546
   H     -0.397989     -0.809385      0.484822
   K      0.000000      0.000000      5.160000
