    6
 0018.xyz Energy 0.0938926
   H      0.584485     -0.748499      0.383002
   N     -0.000003      0.000004     -0.000002
   H     -0.731840     -0.406318     -0.589748
   H     -0.431266      0.522911      0.767546
   H      0.578665      0.631850     -0.560771
   K      0.000000      0.000000      5.600000
