    6
 0019.xyz Energy 0.0855067
   H      0.387402      0.766613     -0.557485
   N     -0.000002     -0.000004      0.000003
   H      0.334720     -0.894151     -0.370057
   H      0.300488      0.100370      0.973748
   H     -1.022581      0.027227     -0.046248
   K      0.000000      0.000000      6.180000
