    6
 0020.xyz Energy 0.0866137
   H     -0.511606     -0.663459      0.588767
   N      0.000003      0.000004     -0.000003
   H     -0.292943     -0.112306     -0.974709
   H     -0.200612      0.955491      0.308779
   H      1.005123     -0.179776      0.077208
   K      0.000000      0.000000      6.060000
