    6
 0021.xyz Energy 0.122516
   H     -0.076301      0.981077      0.283252
   N      0.000000     -0.000005     -0.000002
   H      0.981289     -0.226472     -0.185120
   H     -0.353146     -0.600403      0.750571
   H     -0.551848     -0.154127     -0.848682
   K      0.000000      0.000000      4.240000
