    6
 0022.xyz Energy 0.11228
   H      0.923616     -0.368887      0.243763
   N     -0.000005      0.000002     -0.000001
   H     -0.606908     -0.769016     -0.297931
   H     -0.409818      0.461328      0.817177
   H      0.093180      0.676547     -0.762990
   K      0.000000      0.000000      4.660000
