    6
 0023.xyz Energy 0.107252
   H      0.129129      0.919064      0.432680
   N     -0.000001     -0.000005     -0.000002
   H      0.039146     -0.725470      0.721559
   H     -0.910498     -0.032283     -0.467443
   H      0.742234     -0.161240     -0.686763
   K      0.000000      0.000000      4.880000
