    6
 0024.xyz Energy 0.0974027
   H      0.337612     -0.964575     -0.064639
   N     -0.000002      0.000005      0.000000
   H     -0.523571      0.120662      0.871666
   H      0.797510      0.642194     -0.010835
   H     -0.611525      0.201646     -0.796196
   K      0.000000      0.000000      5.400000
