    6
 0025.xyz Energy 0.0973338
   H      0.587086      0.617717      0.567733
   N     -0.000003     -0.000003     -0.000003
   H     -0.881878     -0.177284      0.489233
   H     -0.193307      0.446185     -0.901168
   H      0.488144     -0.886571     -0.155755
   K      0.000000      0.000000      5.380000
