    6
 0026.xyz Energy 0.0875007
   H     -0.465137      0.485393     -0.772403
   N      0.000003     -0.000003      0.000004
   H      0.980211     -0.168338     -0.243588
   H     -0.047583      0.577667      0.844150
   H     -0.467526     -0.894686      0.171782
   K      0.000000      0.000000      6.020000
