    6
 0027.xyz Energy 0.0822145
   H     -0.912903      0.035764     -0.462485
   N      0.000005     -0.000000      0.000003
   H     -0.092407     -0.477303      0.901182
   H      0.662063     -0.511184     -0.590691
   H      0.343179      0.952727      0.151959
   K      0.000000      0.000000      6.420000
