    6
 0029.xyz Energy 0.115193
   H     -0.583432     -0.770663      0.338010
   N      0.000003      0.000004     -0.000002
   H      0.704089      0.230485      0.706839
   H      0.466261     -0.280015     -0.867608
   H     -0.586963      0.820135     -0.177216
   K      0.000000      0.000000      4.520000
