    6
 0030.xyz Energy 0.107652
   H      0.905177      0.138445      0.458314
   N     -0.000005     -0.000001     -0.000003
   H     -0.008172     -0.908678     -0.471937
   H     -0.745437      0.026986      0.701532
   H     -0.151499      0.743256     -0.687873
   K      0.000000      0.000000      4.860000
