    6
 0032.xyz Energy 0.0948337
   H      0.511076     -0.764851      0.449854
   N     -0.000003      0.000004     -0.000002
   H     -0.700893     -0.386877     -0.638405
   H     -0.465246      0.566555      0.714922
   H      0.655103      0.585116     -0.526338
   K      0.000000      0.000000      5.540000
