    6
 0034.xyz Energy 0.0851871
   H      0.777866      0.224364     -0.627016
   N     -0.000004     -0.000001      0.000003
   H     -0.863913     -0.081642     -0.543577
   H      0.189499     -0.887114      0.475048
   H     -0.103393      0.744409      0.695497
   K      0.000000      0.000000      6.180000
